
---------- Begin Simulation Statistics ----------
final_tick                               6022336527000                       # Number of ticks from beginning of simulation (restored from checkpoints and never reset)
host_inst_rate                                 187081                       # Simulator instruction rate (inst/s)
host_mem_usage                                 707740                       # Number of bytes of host memory used
host_op_rate                                   384717                       # Simulator op (including micro ops) rate (op/s)
host_seconds                                   332.70                       # Real time elapsed on the host
host_tick_rate                            18101497828                       # Simulator tick rate (ticks/s)
sim_freq                                 1000000000000                      # Frequency of simulated ticks
sim_insts                                    62241523                       # Number of instructions simulated
sim_ops                                     127994556                       # Number of ops (including micro ops) simulated
sim_seconds                                  6.022337                       # Number of seconds simulated
sim_ticks                                6022336527000                       # Number of ticks simulated
system.clk_domain.clock                          1000                       # Clock period in ticks
system.clk_domain.voltage_domain.voltage            1                       # Voltage in Volts
system.cpu.Branches                          14640572                       # Number of branches fetched
system.cpu.apic_clk_domain.clock                16000                       # Clock period in ticks
system.cpu.committedInsts                    62241523                       # Number of instructions committed
system.cpu.committedOps                     127994556                       # Number of ops (including micro ops) committed
system.cpu.dtb.rdAccesses                    19232397                       # TLB accesses on read requests
system.cpu.dtb.rdMisses                           850                       # TLB misses on read requests
system.cpu.dtb.walker.pwrStateResidencyTicks::UNDEFINED 6022336527000                       # Cumulative time (in ticks) in various power states
system.cpu.dtb.wrAccesses                     9656196                       # TLB accesses on write requests
system.cpu.dtb.wrMisses                            56                       # TLB misses on write requests
system.cpu.idle_fraction                     0.000000                       # Percentage of idle cycles
system.cpu.interrupts.pwrStateResidencyTicks::UNDEFINED 6022336527000                       # Cumulative time (in ticks) in various power states
system.cpu.itb.rdAccesses                           0                       # TLB accesses on read requests
system.cpu.itb.rdMisses                             0                       # TLB misses on read requests
system.cpu.itb.walker.pwrStateResidencyTicks::UNDEFINED 6022336527000                       # Cumulative time (in ticks) in various power states
system.cpu.itb.wrAccesses                    79881499                       # TLB accesses on write requests
system.cpu.itb.wrMisses                           232                       # TLB misses on write requests
system.cpu.not_idle_fraction                 1.000000                       # Percentage of non-idle cycles
system.cpu.numCycles                       6022336527                       # number of cpu cycles simulated
system.cpu.numWorkItemsCompleted                    0                       # number of work items this cpu completed
system.cpu.numWorkItemsStarted                      0                       # number of work items this cpu started
system.cpu.num_busy_cycles               6022336526.999000                       # Number of busy cycles
system.cpu.num_cc_register_reads             65943150                       # number of times the CC registers were read
system.cpu.num_cc_register_writes            34301837                       # number of times the CC registers were written
system.cpu.num_conditional_control_insts      9716214                       # number of instructions that are conditional controls
system.cpu.num_fp_alu_accesses                1487384                       # Number of float alu accesses
system.cpu.num_fp_insts                       1487384                       # number of float instructions
system.cpu.num_fp_register_reads              2433411                       # number of times the floating registers were read
system.cpu.num_fp_register_writes             1217323                       # number of times the floating registers were written
system.cpu.num_func_calls                     3003988                       # number of times a function call or return occured
system.cpu.num_idle_cycles                   0.001000                       # Number of idlecycles
system.cpu.num_int_alu_accesses             126735013                       # Number of integer alu accesses
system.cpu.num_int_insts                    126735013                       # number of integer instructions
system.cpu.num_int_register_reads           256425037                       # number of times the integer registers were read
system.cpu.num_int_register_writes          102477585                       # number of times the integer registers were written
system.cpu.num_load_insts                    19166829                       # Number of load instructions
system.cpu.num_mem_refs                      28823020                       # number of memory refs
system.cpu.num_store_insts                    9656191                       # Number of store instructions
system.cpu.num_vec_alu_accesses                     0                       # Number of vector alu accesses
system.cpu.num_vec_insts                            0                       # number of vector instructions
system.cpu.num_vec_register_reads                   0                       # number of times the vector registers were read
system.cpu.num_vec_register_writes                  0                       # number of times the vector registers were written
system.cpu.op_class::No_OpClass                314018      0.25%      0.25% # Class of executed instruction
system.cpu.op_class::IntAlu                  97429982     76.12%     76.37% # Class of executed instruction
system.cpu.op_class::IntMult                   180302      0.14%     76.51% # Class of executed instruction
system.cpu.op_class::IntDiv                     37162      0.03%     76.54% # Class of executed instruction
system.cpu.op_class::FloatAdd                      82      0.00%     76.54% # Class of executed instruction
system.cpu.op_class::FloatCmp                       0      0.00%     76.54% # Class of executed instruction
system.cpu.op_class::FloatCvt                       0      0.00%     76.54% # Class of executed instruction
system.cpu.op_class::FloatMult                      0      0.00%     76.54% # Class of executed instruction
system.cpu.op_class::FloatMultAcc                   0      0.00%     76.54% # Class of executed instruction
system.cpu.op_class::FloatDiv                       0      0.00%     76.54% # Class of executed instruction
system.cpu.op_class::FloatMisc                      0      0.00%     76.54% # Class of executed instruction
system.cpu.op_class::FloatSqrt                      0      0.00%     76.54% # Class of executed instruction
system.cpu.op_class::SimdAdd                     5542      0.00%     76.54% # Class of executed instruction
system.cpu.op_class::SimdAddAcc                     0      0.00%     76.54% # Class of executed instruction
system.cpu.op_class::SimdAlu                   661836      0.52%     77.06% # Class of executed instruction
system.cpu.op_class::SimdCmp                        0      0.00%     77.06% # Class of executed instruction
system.cpu.op_class::SimdCvt                   273628      0.21%     77.27% # Class of executed instruction
system.cpu.op_class::SimdMisc                  268308      0.21%     77.48% # Class of executed instruction
system.cpu.op_class::SimdMult                       0      0.00%     77.48% # Class of executed instruction
system.cpu.op_class::SimdMultAcc                    0      0.00%     77.48% # Class of executed instruction
system.cpu.op_class::SimdShift                    676      0.00%     77.48% # Class of executed instruction
system.cpu.op_class::SimdShiftAcc                   0      0.00%     77.48% # Class of executed instruction
system.cpu.op_class::SimdDiv                        0      0.00%     77.48% # Class of executed instruction
system.cpu.op_class::SimdSqrt                       0      0.00%     77.48% # Class of executed instruction
system.cpu.op_class::SimdFloatAdd                   0      0.00%     77.48% # Class of executed instruction
system.cpu.op_class::SimdFloatAlu                   0      0.00%     77.48% # Class of executed instruction
system.cpu.op_class::SimdFloatCmp                   0      0.00%     77.48% # Class of executed instruction
system.cpu.op_class::SimdFloatCvt                   0      0.00%     77.48% # Class of executed instruction
system.cpu.op_class::SimdFloatDiv                   0      0.00%     77.48% # Class of executed instruction
system.cpu.op_class::SimdFloatMisc                  0      0.00%     77.48% # Class of executed instruction
system.cpu.op_class::SimdFloatMult                  0      0.00%     77.48% # Class of executed instruction
system.cpu.op_class::SimdFloatMultAcc               0      0.00%     77.48% # Class of executed instruction
system.cpu.op_class::SimdFloatSqrt                  0      0.00%     77.48% # Class of executed instruction
system.cpu.op_class::SimdReduceAdd                  0      0.00%     77.48% # Class of executed instruction
system.cpu.op_class::SimdReduceAlu                  0      0.00%     77.48% # Class of executed instruction
system.cpu.op_class::SimdReduceCmp                  0      0.00%     77.48% # Class of executed instruction
system.cpu.op_class::SimdFloatReduceAdd             0      0.00%     77.48% # Class of executed instruction
system.cpu.op_class::SimdFloatReduceCmp             0      0.00%     77.48% # Class of executed instruction
system.cpu.op_class::SimdAes                        0      0.00%     77.48% # Class of executed instruction
system.cpu.op_class::SimdAesMix                     0      0.00%     77.48% # Class of executed instruction
system.cpu.op_class::SimdSha1Hash                   0      0.00%     77.48% # Class of executed instruction
system.cpu.op_class::SimdSha1Hash2                  0      0.00%     77.48% # Class of executed instruction
system.cpu.op_class::SimdSha256Hash                 0      0.00%     77.48% # Class of executed instruction
system.cpu.op_class::SimdSha256Hash2                0      0.00%     77.48% # Class of executed instruction
system.cpu.op_class::SimdShaSigma2                  0      0.00%     77.48% # Class of executed instruction
system.cpu.op_class::SimdShaSigma3                  0      0.00%     77.48% # Class of executed instruction
system.cpu.op_class::SimdPredAlu                    0      0.00%     77.48% # Class of executed instruction
system.cpu.op_class::MemRead                 18891696     14.76%     92.24% # Class of executed instruction
system.cpu.op_class::MemWrite                 9654186      7.54%     99.78% # Class of executed instruction
system.cpu.op_class::FloatMemRead              275133      0.21%    100.00% # Class of executed instruction
system.cpu.op_class::FloatMemWrite               2005      0.00%    100.00% # Class of executed instruction
system.cpu.op_class::IprAccess                      0      0.00%    100.00% # Class of executed instruction
system.cpu.op_class::InstPrefetch                   0      0.00%    100.00% # Class of executed instruction
system.cpu.op_class::total                  127994556                       # Class of executed instruction
system.cpu.pwrStateResidencyTicks::ON    6022336527000                       # Cumulative time (in ticks) in various power states
system.cpu.workload.numSyscalls                 32826                       # Number of system calls
system.mem_ctrl.avgBusLat                     5000.00                       # Average bus latency per DRAM burst
system.mem_ctrl.avgGap                       55367.58                       # Average gap between requests
system.mem_ctrl.avgMemAccLat                 29341.10                       # Average memory access latency per DRAM burst
system.mem_ctrl.avgPriority_.cpu.inst::samples  79881499.00                       # Average QoS priority value for accepted requests
system.mem_ctrl.avgPriority_.cpu.data::samples  17045845.00                       # Average QoS priority value for accepted requests
system.mem_ctrl.avgQLat                      10591.10                       # Average queueing delay per DRAM burst
system.mem_ctrl.avgRdBW                       1029.99                       # Average DRAM read bandwidth in MiByte/s
system.mem_ctrl.avgRdBWSys                     127.33                       # Average system read bandwidth in MiByte/s
system.mem_ctrl.avgRdQLen                        1.00                       # Average read queue length when enqueuing
system.mem_ctrl.avgWrBW                          0.07                       # Average achieved write bandwidth in MiByte/s
system.mem_ctrl.avgWrBWSys                      11.28                       # Average system write bandwidth in MiByte/s
system.mem_ctrl.avgWrQLen                       31.38                       # Average write queue length when enqueuing
system.mem_ctrl.busUtil                          8.05                       # Data bus utilization in percentage
system.mem_ctrl.busUtilRead                      8.05                       # Data bus utilization in percentage for reads
system.mem_ctrl.busUtilWrite                     0.00                       # Data bus utilization in percentage for writes
system.mem_ctrl.bw_inst_read::.cpu.inst     106113630                       # Instruction read bandwidth from this memory (bytes/s)
system.mem_ctrl.bw_inst_read::total         106113630                       # Instruction read bandwidth from this memory (bytes/s)
system.mem_ctrl.bw_read::.cpu.inst          106113630                       # Total read bandwidth from this memory (bytes/s)
system.mem_ctrl.bw_read::.cpu.data           21214649                       # Total read bandwidth from this memory (bytes/s)
system.mem_ctrl.bw_read::total              127328279                       # Total read bandwidth from this memory (bytes/s)
system.mem_ctrl.bw_total::.cpu.inst         106113630                       # Total bandwidth to/from this memory (bytes/s)
system.mem_ctrl.bw_total::.cpu.data          32493727                       # Total bandwidth to/from this memory (bytes/s)
system.mem_ctrl.bw_total::total             138607357                       # Total bandwidth to/from this memory (bytes/s)
system.mem_ctrl.bw_write::.cpu.data          11279078                       # Write bandwidth from this memory (bytes/s)
system.mem_ctrl.bw_write::total              11279078                       # Write bandwidth from this memory (bytes/s)
system.mem_ctrl.bytesPerActivate::samples     12975510                       # Bytes accessed per row activation
system.mem_ctrl.bytesPerActivate::mean     478.081180                       # Bytes accessed per row activation
system.mem_ctrl.bytesPerActivate::gmean    278.940771                       # Bytes accessed per row activation
system.mem_ctrl.bytesPerActivate::stdev    404.990993                       # Bytes accessed per row activation
system.mem_ctrl.bytesPerActivate::0-127       3872284     29.84%     29.84% # Bytes accessed per row activation
system.mem_ctrl.bytesPerActivate::128-255      1773178     13.67%     43.51% # Bytes accessed per row activation
system.mem_ctrl.bytesPerActivate::256-383      1005799      7.75%     51.26% # Bytes accessed per row activation
system.mem_ctrl.bytesPerActivate::384-511       946101      7.29%     58.55% # Bytes accessed per row activation
system.mem_ctrl.bytesPerActivate::512-639       588183      4.53%     63.08% # Bytes accessed per row activation
system.mem_ctrl.bytesPerActivate::640-767       295560      2.28%     65.36% # Bytes accessed per row activation
system.mem_ctrl.bytesPerActivate::768-895       398697      3.07%     68.44% # Bytes accessed per row activation
system.mem_ctrl.bytesPerActivate::896-1023       477955      3.68%     72.12% # Bytes accessed per row activation
system.mem_ctrl.bytesPerActivate::1024-1151      3617753     27.88%    100.00% # Bytes accessed per row activation
system.mem_ctrl.bytesPerActivate::total      12975510                       # Bytes accessed per row activation
system.mem_ctrl.bytesReadDRAM              6202949760                       # Total number of bytes read from DRAM
system.mem_ctrl.bytesReadSys                766813746                       # Total read bytes from the system interface side
system.mem_ctrl.bytesReadWrQ                140339584                       # Total number of bytes read from write queue
system.mem_ctrl.bytesWritten                   398592                       # Total number of bytes written to DRAM
system.mem_ctrl.bytesWrittenSys              67926405                       # Total written bytes from the system interface side
system.mem_ctrl.bytes_inst_read::.cpu.inst    639051992                       # Number of instructions bytes read from this memory
system.mem_ctrl.bytes_inst_read::total      639051992                       # Number of instructions bytes read from this memory
system.mem_ctrl.bytes_read::.cpu.inst       639051992                       # Number of bytes read from this memory
system.mem_ctrl.bytes_read::.cpu.data       127761754                       # Number of bytes read from this memory
system.mem_ctrl.bytes_read::total           766813746                       # Number of bytes read from this memory
system.mem_ctrl.bytes_written::.cpu.data     67926405                       # Number of bytes written to this memory
system.mem_ctrl.bytes_written::total         67926405                       # Number of bytes written to this memory
system.mem_ctrl.masterReadAccesses::.cpu.inst     79881499                       # Per-master read serviced memory accesses
system.mem_ctrl.masterReadAccesses::.cpu.data     19232397                       # Per-master read serviced memory accesses
system.mem_ctrl.masterReadAvgLat::.cpu.inst     28367.71                       # Per-master read average memory access latency
system.mem_ctrl.masterReadAvgLat::.cpu.data     30038.72                       # Per-master read average memory access latency
system.mem_ctrl.masterReadBytes::.cpu.inst    639051992                       # Per-master bytes read from memory
system.mem_ctrl.masterReadBytes::.cpu.data    112286494                       # Per-master bytes read from memory
system.mem_ctrl.masterReadRate::.cpu.inst 106113630.338479414582                       # Per-master bytes read from memory rate (Bytes/sec)
system.mem_ctrl.masterReadRate::.cpu.data 18645004.890806891024                       # Per-master bytes read from memory rate (Bytes/sec)
system.mem_ctrl.masterReadTotalLat::.cpu.inst 2266055088750                       # Per-master read total memory access latency
system.mem_ctrl.masterReadTotalLat::.cpu.data 577716522250                       # Per-master read total memory access latency
system.mem_ctrl.masterWriteAccesses::.cpu.data      9656196                       # Per-master write serviced memory accesses
system.mem_ctrl.masterWriteAvgLat::.cpu.data  17754907.02                       # Per-master write average memory access latency
system.mem_ctrl.masterWriteBytes::.cpu.data        47814                       # Per-master bytes write to memory
system.mem_ctrl.masterWriteRate::.cpu.data 7939.443401350129                       # Per-master bytes write to memory rate (Bytes/sec)
system.mem_ctrl.masterWriteTotalLat::.cpu.data 171444862184250                       # Per-master write total memory access latency
system.mem_ctrl.mergedWrBursts                9649942                       # Number of DRAM write bursts merged with an existing one
system.mem_ctrl.neitherReadNorWriteReqs             0                       # Number of requests that are neither read nor write
system.mem_ctrl.numRdRetry                          0                       # Number of times read queue was full causing retry
system.mem_ctrl.numReadWriteTurnArounds           389                       # Number of turnarounds from READ to WRITE
system.mem_ctrl.numStayReadState            205035642                       # Number of times bus staying in READ state
system.mem_ctrl.numStayWriteState                5870                       # Number of times bus staying in WRITE state
system.mem_ctrl.numWrRetry                          0                       # Number of times write queue was full causing retry
system.mem_ctrl.numWriteReadTurnArounds           389                       # Number of turnarounds from WRITE to READ
system.mem_ctrl.num_reads::.cpu.inst         79881499                       # Number of read requests responded to by this memory
system.mem_ctrl.num_reads::.cpu.data         19232397                       # Number of read requests responded to by this memory
system.mem_ctrl.num_reads::total             99113896                       # Number of read requests responded to by this memory
system.mem_ctrl.num_writes::.cpu.data         9656196                       # Number of write requests responded to by this memory
system.mem_ctrl.num_writes::total             9656196                       # Number of write requests responded to by this memory
system.mem_ctrl.pageHitRate                     86.61                       # Row buffer hit rate, read and write combined
system.mem_ctrl.peakBW                       12800.00                       # Theoretical peak bandwidth in MiByte/s
system.mem_ctrl.perBankRdBursts::0            3610895                       # Per bank write bursts
system.mem_ctrl.perBankRdBursts::1            2005235                       # Per bank write bursts
system.mem_ctrl.perBankRdBursts::2             443792                       # Per bank write bursts
system.mem_ctrl.perBankRdBursts::3            2154997                       # Per bank write bursts
system.mem_ctrl.perBankRdBursts::4           15365314                       # Per bank write bursts
system.mem_ctrl.perBankRdBursts::5            9685583                       # Per bank write bursts
system.mem_ctrl.perBankRdBursts::6            8047922                       # Per bank write bursts
system.mem_ctrl.perBankRdBursts::7            1034287                       # Per bank write bursts
system.mem_ctrl.perBankRdBursts::8            2341072                       # Per bank write bursts
system.mem_ctrl.perBankRdBursts::9            5914263                       # Per bank write bursts
system.mem_ctrl.perBankRdBursts::10          20680731                       # Per bank write bursts
system.mem_ctrl.perBankRdBursts::11          21398021                       # Per bank write bursts
system.mem_ctrl.perBankRdBursts::12           4014866                       # Per bank write bursts
system.mem_ctrl.perBankRdBursts::13             37307                       # Per bank write bursts
system.mem_ctrl.perBankRdBursts::14             17069                       # Per bank write bursts
system.mem_ctrl.perBankRdBursts::15            169736                       # Per bank write bursts
system.mem_ctrl.perBankWrBursts::0                  2                       # Per bank write bursts
system.mem_ctrl.perBankWrBursts::1                 28                       # Per bank write bursts
system.mem_ctrl.perBankWrBursts::2                 33                       # Per bank write bursts
system.mem_ctrl.perBankWrBursts::3                118                       # Per bank write bursts
system.mem_ctrl.perBankWrBursts::4                149                       # Per bank write bursts
system.mem_ctrl.perBankWrBursts::5                641                       # Per bank write bursts
system.mem_ctrl.perBankWrBursts::6               2917                       # Per bank write bursts
system.mem_ctrl.perBankWrBursts::7                618                       # Per bank write bursts
system.mem_ctrl.perBankWrBursts::8                333                       # Per bank write bursts
system.mem_ctrl.perBankWrBursts::9                387                       # Per bank write bursts
system.mem_ctrl.perBankWrBursts::10               612                       # Per bank write bursts
system.mem_ctrl.perBankWrBursts::11               152                       # Per bank write bursts
system.mem_ctrl.perBankWrBursts::12               202                       # Per bank write bursts
system.mem_ctrl.perBankWrBursts::13                36                       # Per bank write bursts
system.mem_ctrl.perBankWrBursts::14                 0                       # Per bank write bursts
system.mem_ctrl.perBankWrBursts::15                 0                       # Per bank write bursts
system.mem_ctrl.priorityMaxLatency       11.646747099750                       # per QoS priority maximum request to response latency (s)
system.mem_ctrl.priorityMinLatency       0.000000018750                       # per QoS priority minimum request to response latency (s)
system.mem_ctrl.pwrStateResidencyTicks::UNDEFINED 6022336527000                       # Cumulative time (in ticks) in various power states
system.mem_ctrl.rdPerTurnAround::samples          389                       # Reads before turning the bus around for writes
system.mem_ctrl.rdPerTurnAround::mean    249153.969152                       # Reads before turning the bus around for writes
system.mem_ctrl.rdPerTurnAround::stdev   4747817.489815                       # Reads before turning the bus around for writes
system.mem_ctrl.rdPerTurnAround::0-4.1943e+06          388     99.74%     99.74% # Reads before turning the bus around for writes
system.mem_ctrl.rdPerTurnAround::9.22747e+07-9.6469e+07            1      0.26%    100.00% # Reads before turning the bus around for writes
system.mem_ctrl.rdPerTurnAround::total            389                       # Reads before turning the bus around for writes
system.mem_ctrl.rdQLenPdf::0                 96855522                       # What read queue length does an incoming req see
system.mem_ctrl.rdQLenPdf::1                    65568                       # What read queue length does an incoming req see
system.mem_ctrl.rdQLenPdf::2                        0                       # What read queue length does an incoming req see
system.mem_ctrl.rdQLenPdf::3                        0                       # What read queue length does an incoming req see
system.mem_ctrl.rdQLenPdf::4                        0                       # What read queue length does an incoming req see
system.mem_ctrl.rdQLenPdf::5                        0                       # What read queue length does an incoming req see
system.mem_ctrl.rdQLenPdf::6                        0                       # What read queue length does an incoming req see
system.mem_ctrl.rdQLenPdf::7                        0                       # What read queue length does an incoming req see
system.mem_ctrl.rdQLenPdf::8                        0                       # What read queue length does an incoming req see
system.mem_ctrl.rdQLenPdf::9                        0                       # What read queue length does an incoming req see
system.mem_ctrl.rdQLenPdf::10                       0                       # What read queue length does an incoming req see
system.mem_ctrl.rdQLenPdf::11                       0                       # What read queue length does an incoming req see
system.mem_ctrl.rdQLenPdf::12                       0                       # What read queue length does an incoming req see
system.mem_ctrl.rdQLenPdf::13                       0                       # What read queue length does an incoming req see
system.mem_ctrl.rdQLenPdf::14                       0                       # What read queue length does an incoming req see
system.mem_ctrl.rdQLenPdf::15                       0                       # What read queue length does an incoming req see
system.mem_ctrl.rdQLenPdf::16                       0                       # What read queue length does an incoming req see
system.mem_ctrl.rdQLenPdf::17                       0                       # What read queue length does an incoming req see
system.mem_ctrl.rdQLenPdf::18                       0                       # What read queue length does an incoming req see
system.mem_ctrl.rdQLenPdf::19                       0                       # What read queue length does an incoming req see
system.mem_ctrl.rdQLenPdf::20                       0                       # What read queue length does an incoming req see
system.mem_ctrl.rdQLenPdf::21                       0                       # What read queue length does an incoming req see
system.mem_ctrl.rdQLenPdf::22                       0                       # What read queue length does an incoming req see
system.mem_ctrl.rdQLenPdf::23                       0                       # What read queue length does an incoming req see
system.mem_ctrl.rdQLenPdf::24                       0                       # What read queue length does an incoming req see
system.mem_ctrl.rdQLenPdf::25                       0                       # What read queue length does an incoming req see
system.mem_ctrl.rdQLenPdf::26                       0                       # What read queue length does an incoming req see
system.mem_ctrl.rdQLenPdf::27                       0                       # What read queue length does an incoming req see
system.mem_ctrl.rdQLenPdf::28                       0                       # What read queue length does an incoming req see
system.mem_ctrl.rdQLenPdf::29                       0                       # What read queue length does an incoming req see
system.mem_ctrl.rdQLenPdf::30                       0                       # What read queue length does an incoming req see
system.mem_ctrl.rdQLenPdf::31                       0                       # What read queue length does an incoming req see
system.mem_ctrl.readBursts                   99113896                       # Number of DRAM read bursts, including those serviced by the write queue
system.mem_ctrl.readPktSize::0                1967077                       # Read request sizes (log2)
system.mem_ctrl.readPktSize::1                 141341                       # Read request sizes (log2)
system.mem_ctrl.readPktSize::2                2837178                       # Read request sizes (log2)
system.mem_ctrl.readPktSize::3               94168300                       # Read request sizes (log2)
system.mem_ctrl.readPktSize::4                      0                       # Read request sizes (log2)
system.mem_ctrl.readPktSize::5                      0                       # Read request sizes (log2)
system.mem_ctrl.readPktSize::6                      0                       # Read request sizes (log2)
system.mem_ctrl.readReqs                     99113896                       # Number of read requests accepted
system.mem_ctrl.readRowHitRate                  86.61                       # Row buffer hit rate for reads
system.mem_ctrl.readRowHits                  83946471                       # Number of row buffer hits during reads
system.mem_ctrl.servicedByWrQ                 2192806                       # Number of DRAM read bursts serviced by the write queue
system.mem_ctrl.totBusLat                484605450000                       # Total ticks spent in databus transfers
system.mem_ctrl.totGap                   6022336395000                       # Total gap between requests
system.mem_ctrl.totMemAccLat             2843771611000                       # Total ticks spent from burst creation until serviced by the DRAM
system.mem_ctrl.totQLat                  1026501173500                       # Total ticks spent queuing
system.mem_ctrl.wrPerTurnAround::samples          389                       # Writes before turning the bus around for reads
system.mem_ctrl.wrPerTurnAround::mean       16.010283                       # Writes before turning the bus around for reads
system.mem_ctrl.wrPerTurnAround::gmean      16.009692                       # Writes before turning the bus around for reads
system.mem_ctrl.wrPerTurnAround::stdev       0.143222                       # Writes before turning the bus around for reads
system.mem_ctrl.wrPerTurnAround::16               387     99.49%     99.49% # Writes before turning the bus around for reads
system.mem_ctrl.wrPerTurnAround::18                 2      0.51%    100.00% # Writes before turning the bus around for reads
system.mem_ctrl.wrPerTurnAround::total            389                       # Writes before turning the bus around for reads
system.mem_ctrl.wrQLenPdf::0                        1                       # What write queue length does an incoming req see
system.mem_ctrl.wrQLenPdf::1                        1                       # What write queue length does an incoming req see
system.mem_ctrl.wrQLenPdf::2                        1                       # What write queue length does an incoming req see
system.mem_ctrl.wrQLenPdf::3                        1                       # What write queue length does an incoming req see
system.mem_ctrl.wrQLenPdf::4                        1                       # What write queue length does an incoming req see
system.mem_ctrl.wrQLenPdf::5                        1                       # What write queue length does an incoming req see
system.mem_ctrl.wrQLenPdf::6                        1                       # What write queue length does an incoming req see
system.mem_ctrl.wrQLenPdf::7                        1                       # What write queue length does an incoming req see
system.mem_ctrl.wrQLenPdf::8                        1                       # What write queue length does an incoming req see
system.mem_ctrl.wrQLenPdf::9                        1                       # What write queue length does an incoming req see
system.mem_ctrl.wrQLenPdf::10                       1                       # What write queue length does an incoming req see
system.mem_ctrl.wrQLenPdf::11                       1                       # What write queue length does an incoming req see
system.mem_ctrl.wrQLenPdf::12                       1                       # What write queue length does an incoming req see
system.mem_ctrl.wrQLenPdf::13                       1                       # What write queue length does an incoming req see
system.mem_ctrl.wrQLenPdf::14                       1                       # What write queue length does an incoming req see
system.mem_ctrl.wrQLenPdf::15                       3                       # What write queue length does an incoming req see
system.mem_ctrl.wrQLenPdf::16                       3                       # What write queue length does an incoming req see
system.mem_ctrl.wrQLenPdf::17                     389                       # What write queue length does an incoming req see
system.mem_ctrl.wrQLenPdf::18                     390                       # What write queue length does an incoming req see
system.mem_ctrl.wrQLenPdf::19                     390                       # What write queue length does an incoming req see
system.mem_ctrl.wrQLenPdf::20                     390                       # What write queue length does an incoming req see
system.mem_ctrl.wrQLenPdf::21                     390                       # What write queue length does an incoming req see
system.mem_ctrl.wrQLenPdf::22                     390                       # What write queue length does an incoming req see
system.mem_ctrl.wrQLenPdf::23                     390                       # What write queue length does an incoming req see
system.mem_ctrl.wrQLenPdf::24                     390                       # What write queue length does an incoming req see
system.mem_ctrl.wrQLenPdf::25                     390                       # What write queue length does an incoming req see
system.mem_ctrl.wrQLenPdf::26                     389                       # What write queue length does an incoming req see
system.mem_ctrl.wrQLenPdf::27                     389                       # What write queue length does an incoming req see
system.mem_ctrl.wrQLenPdf::28                     390                       # What write queue length does an incoming req see
system.mem_ctrl.wrQLenPdf::29                     389                       # What write queue length does an incoming req see
system.mem_ctrl.wrQLenPdf::30                     389                       # What write queue length does an incoming req see
system.mem_ctrl.wrQLenPdf::31                     389                       # What write queue length does an incoming req see
system.mem_ctrl.wrQLenPdf::32                     389                       # What write queue length does an incoming req see
system.mem_ctrl.wrQLenPdf::33                       0                       # What write queue length does an incoming req see
system.mem_ctrl.wrQLenPdf::34                       0                       # What write queue length does an incoming req see
system.mem_ctrl.wrQLenPdf::35                       0                       # What write queue length does an incoming req see
system.mem_ctrl.wrQLenPdf::36                       0                       # What write queue length does an incoming req see
system.mem_ctrl.wrQLenPdf::37                       0                       # What write queue length does an incoming req see
system.mem_ctrl.wrQLenPdf::38                       0                       # What write queue length does an incoming req see
system.mem_ctrl.wrQLenPdf::39                       0                       # What write queue length does an incoming req see
system.mem_ctrl.wrQLenPdf::40                       0                       # What write queue length does an incoming req see
system.mem_ctrl.wrQLenPdf::41                       0                       # What write queue length does an incoming req see
system.mem_ctrl.wrQLenPdf::42                       0                       # What write queue length does an incoming req see
system.mem_ctrl.wrQLenPdf::43                       0                       # What write queue length does an incoming req see
system.mem_ctrl.wrQLenPdf::44                       0                       # What write queue length does an incoming req see
system.mem_ctrl.wrQLenPdf::45                       0                       # What write queue length does an incoming req see
system.mem_ctrl.wrQLenPdf::46                       0                       # What write queue length does an incoming req see
system.mem_ctrl.wrQLenPdf::47                       0                       # What write queue length does an incoming req see
system.mem_ctrl.wrQLenPdf::48                       0                       # What write queue length does an incoming req see
system.mem_ctrl.wrQLenPdf::49                       0                       # What write queue length does an incoming req see
system.mem_ctrl.wrQLenPdf::50                       0                       # What write queue length does an incoming req see
system.mem_ctrl.wrQLenPdf::51                       0                       # What write queue length does an incoming req see
system.mem_ctrl.wrQLenPdf::52                       0                       # What write queue length does an incoming req see
system.mem_ctrl.wrQLenPdf::53                       0                       # What write queue length does an incoming req see
system.mem_ctrl.wrQLenPdf::54                       0                       # What write queue length does an incoming req see
system.mem_ctrl.wrQLenPdf::55                       0                       # What write queue length does an incoming req see
system.mem_ctrl.wrQLenPdf::56                       0                       # What write queue length does an incoming req see
system.mem_ctrl.wrQLenPdf::57                       0                       # What write queue length does an incoming req see
system.mem_ctrl.wrQLenPdf::58                       0                       # What write queue length does an incoming req see
system.mem_ctrl.wrQLenPdf::59                       0                       # What write queue length does an incoming req see
system.mem_ctrl.wrQLenPdf::60                       0                       # What write queue length does an incoming req see
system.mem_ctrl.wrQLenPdf::61                       0                       # What write queue length does an incoming req see
system.mem_ctrl.wrQLenPdf::62                       0                       # What write queue length does an incoming req see
system.mem_ctrl.wrQLenPdf::63                       0                       # What write queue length does an incoming req see
system.mem_ctrl.writeBursts                   9656196                       # Number of DRAM write bursts, including those merged in the write queue
system.mem_ctrl.writePktSize::0                705394                       # Write request sizes (log2)
system.mem_ctrl.writePktSize::1                 32892                       # Write request sizes (log2)
system.mem_ctrl.writePktSize::2               1047011                       # Write request sizes (log2)
system.mem_ctrl.writePktSize::3               7870899                       # Write request sizes (log2)
system.mem_ctrl.writePktSize::4                     0                       # Write request sizes (log2)
system.mem_ctrl.writePktSize::5                     0                       # Write request sizes (log2)
system.mem_ctrl.writePktSize::6                     0                       # Write request sizes (log2)
system.mem_ctrl.writeReqs                     9656196                       # Number of write requests accepted
system.mem_ctrl.writeRowHitRate                 85.29                       # Row buffer hit rate for writes
system.mem_ctrl.writeRowHits                     5334                       # Number of row buffer hits during writes
system.mem_ctrl_0.actBackEnergy          624382621560                       # Energy for active background per rank (pJ)
system.mem_ctrl_0.actEnergy               38618710620                       # Energy for activate commands per rank (pJ)
system.mem_ctrl_0.actPowerDownEnergy     2041417400520                       # Energy for active power-down per rank (pJ)
system.mem_ctrl_0.averagePower             592.864016                       # Core power per rank (mW)
system.mem_ctrl_0.memoryStateTime::IDLE    4160874000                       # Time in different power states
system.mem_ctrl_0.memoryStateTime::REF   201087900000                       # Time in different power states
system.mem_ctrl_0.memoryStateTime::SREF     301115500                       # Time in different power states
system.mem_ctrl_0.memoryStateTime::PRE_PDN 148503220750                       # Time in different power states
system.mem_ctrl_0.memoryStateTime::ACT   1191453203500                       # Time in different power states
system.mem_ctrl_0.memoryStateTime::ACT_PDN 4476830213250                       # Time in different power states
system.mem_ctrl_0.preBackEnergy           10545451680                       # Energy for precharge background per rank (pJ)
system.mem_ctrl_0.preEnergy               20526327690                       # Energy for precharge commands per rank (pJ)
system.mem_ctrl_0.prePowerDownEnergy      57023065920                       # Energy for precharge power-down per rank (pJ)
system.mem_ctrl_0.readEnergy             302364898500                       # Energy for read commands per rank (pJ)
system.mem_ctrl_0.refreshEnergy          475371795600.000061                       # Energy for refresh commands per rank (pJ)
system.mem_ctrl_0.selfRefreshEnergy         142411980                       # Energy for self refresh per rank (pJ)
system.mem_ctrl_0.totalEnergy            3570426621540                       # Total energy per rank (pJ)
system.mem_ctrl_0.totalIdleTime          4625634519250                       # Total Idle time Per DRAM Rank
system.mem_ctrl_0.writeEnergy                23521320                       # Energy for write commands per rank (pJ)
system.mem_ctrl_1.actBackEnergy          785734779330                       # Energy for active background per rank (pJ)
system.mem_ctrl_1.actEnergy               54026452200                       # Energy for activate commands per rank (pJ)
system.mem_ctrl_1.actPowerDownEnergy     1788387521760                       # Energy for active power-down per rank (pJ)
system.mem_ctrl_1.averagePower             607.953715                       # Core power per rank (mW)
system.mem_ctrl_1.memoryStateTime::IDLE    9805863000                       # Time in different power states
system.mem_ctrl_1.memoryStateTime::REF   199636320000                       # Time in different power states
system.mem_ctrl_1.memoryStateTime::SREF   41876938750                       # Time in different power states
system.mem_ctrl_1.memoryStateTime::PRE_PDN 293142718500                       # Time in different power states
system.mem_ctrl_1.memoryStateTime::ACT   1555972695250                       # Time in different power states
system.mem_ctrl_1.memoryStateTime::ACT_PDN 3921901991500                       # Time in different power states
system.mem_ctrl_1.preBackEnergy           16096416000                       # Energy for precharge background per rank (pJ)
system.mem_ctrl_1.preEnergy               28715732760                       # Energy for precharge commands per rank (pJ)
system.mem_ctrl_1.prePowerDownEnergy     112566602400                       # Energy for precharge power-down per rank (pJ)
system.mem_ctrl_1.readEnergy             389651684100                       # Energy for read commands per rank (pJ)
system.mem_ctrl_1.refreshEnergy          471940260480.000061                       # Energy for refresh commands per rank (pJ)
system.mem_ctrl_1.selfRefreshEnergy       13995386280                       # Energy for self refresh per rank (pJ)
system.mem_ctrl_1.totalEnergy            3661301867550                       # Total energy per rank (pJ)
system.mem_ctrl_1.totalIdleTime          4256920755500                       # Total Idle time Per DRAM Rank
system.mem_ctrl_1.writeEnergy                 8988840                       # Energy for write commands per rank (pJ)
system.membus.pkt_count_system.cpu.icache_port::system.mem_ctrl.port    159762998                       # Packet count per connected master and slave (bytes)
system.membus.pkt_count_system.cpu.icache_port::total    159762998                       # Packet count per connected master and slave (bytes)
system.membus.pkt_count_system.cpu.dcache_port::system.mem_ctrl.port     57777186                       # Packet count per connected master and slave (bytes)
system.membus.pkt_count_system.cpu.dcache_port::total     57777186                       # Packet count per connected master and slave (bytes)
system.membus.pkt_count::total              217540184                       # Packet count per connected master and slave (bytes)
system.membus.pkt_size_system.cpu.icache_port::system.mem_ctrl.port    639051992                       # Cumulative packet size per connected master and slave (bytes)
system.membus.pkt_size_system.cpu.icache_port::total    639051992                       # Cumulative packet size per connected master and slave (bytes)
system.membus.pkt_size_system.cpu.dcache_port::system.mem_ctrl.port    195688159                       # Cumulative packet size per connected master and slave (bytes)
system.membus.pkt_size_system.cpu.dcache_port::total    195688159                       # Cumulative packet size per connected master and slave (bytes)
system.membus.pkt_size::total               834740151                       # Cumulative packet size per connected master and slave (bytes)
system.membus.pwrStateResidencyTicks::UNDEFINED 6022336527000                       # Cumulative time (in ticks) in various power states
system.membus.reqLayer2.occupancy        118426288000                       # Layer occupancy (ticks)
system.membus.reqLayer2.utilization               2.0                       # Layer utilization (%)
system.membus.respLayer0.occupancy       181928333250                       # Layer occupancy (ticks)
system.membus.respLayer0.utilization              3.0                       # Layer utilization (%)
system.membus.respLayer1.occupancy        54167688750                       # Layer occupancy (ticks)
system.membus.respLayer1.utilization              0.9                       # Layer utilization (%)
system.membus.snoopTraffic                          0                       # Total snoop traffic (bytes)
system.membus.snoop_fanout::samples         108770092                       # Request fanout histogram
system.membus.snoop_fanout::mean                    0                       # Request fanout histogram
system.membus.snoop_fanout::stdev                   0                       # Request fanout histogram
system.membus.snoop_fanout::underflows              0      0.00%      0.00% # Request fanout histogram
system.membus.snoop_fanout::0               108770092    100.00%    100.00% # Request fanout histogram
system.membus.snoop_fanout::1                       0      0.00%    100.00% # Request fanout histogram
system.membus.snoop_fanout::overflows               0      0.00%    100.00% # Request fanout histogram
system.membus.snoop_fanout::min_value               0                       # Request fanout histogram
system.membus.snoop_fanout::max_value               0                       # Request fanout histogram
system.membus.snoop_fanout::total           108770092                       # Request fanout histogram
system.membus.snoop_filter.hit_multi_requests            0                       # Number of requests hitting in the snoop filter with multiple (>1) holders of the requested data.
system.membus.snoop_filter.hit_multi_snoops            0                       # Number of snoops hitting in the snoop filter with multiple (>1) holders of the requested data.
system.membus.snoop_filter.hit_single_requests            0                       # Number of requests hitting in the snoop filter with a single holder of the requested data.
system.membus.snoop_filter.hit_single_snoops            0                       # Number of snoops hitting in the snoop filter with a single holder of the requested data.
system.membus.snoop_filter.tot_requests             0                       # Total number of requests made to the snoop filter.
system.membus.snoop_filter.tot_snoops               0                       # Total number of snoops made to the snoop filter.
system.membus.snoops                                0                       # Total snoops (count)
system.membus.trans_dist::ReadReq            99113896                       # Transaction distribution
system.membus.trans_dist::ReadResp           99113896                       # Transaction distribution
system.membus.trans_dist::WriteReq            9656196                       # Transaction distribution
system.membus.trans_dist::WriteResp           9656196                       # Transaction distribution

---------- End Simulation Statistics   ----------
