
---------- Begin Simulation Statistics ----------
final_tick                               3097166537500                       # Number of ticks from beginning of simulation (restored from checkpoints and never reset)
host_inst_rate                                 103415                       # Simulator instruction rate (inst/s)
host_mem_usage                                 706728                       # Number of bytes of host memory used
host_op_rate                                   201121                       # Simulator op (including micro ops) rate (op/s)
host_seconds                                   830.93                       # Real time elapsed on the host
host_tick_rate                             3727363170                       # Simulator tick rate (ticks/s)
sim_freq                                 1000000000000                       # Frequency of simulated ticks
sim_insts                                    85930633                       # Number of instructions simulated
sim_ops                                     167116472                       # Number of ops (including micro ops) simulated
sim_seconds                                  3.097167                       # Number of seconds simulated
sim_ticks                                3097166537500                       # Number of ticks simulated
system.clk_domain.clock                           250                       # Clock period in ticks
system.clk_domain.voltage_domain.voltage            1                       # Voltage in Volts
system.cpu.apic_clk_domain.clock                 4000                       # Clock period in ticks
system.cpu.branchPred.BTBCorrect                    0                       # Number of correct BTB predictions (this stat may not work properly.
system.cpu.branchPred.BTBHitPct              0.000000                       # BTB Hit Percentage
system.cpu.branchPred.BTBHits                       0                       # Number of BTB hits
system.cpu.branchPred.BTBLookups                   75                       # Number of BTB lookups
system.cpu.branchPred.RASInCorrect                  0                       # Number of incorrect RAS predictions.
system.cpu.branchPred.condIncorrect                59                       # Number of conditional branches incorrect
system.cpu.branchPred.condPredicted               139                       # Number of conditional branches predicted
system.cpu.branchPred.indirectHits                  1                       # Number of indirect target hits.
system.cpu.branchPred.indirectLookups              75                       # Number of indirect predictor lookups.
system.cpu.branchPred.indirectMisses               74                       # Number of indirect misses.
system.cpu.branchPred.lookups                     139                       # Number of BP lookups
system.cpu.branchPred.usedRAS                       0                       # Number of times the RAS was used to get a target.
system.cpu.branchPredindirectMispredicted           28                       # Number of mispredicted indirect branches.
system.cpu.committedInsts                    85930633                       # Number of instructions committed
system.cpu.committedOps                     167116472                       # Number of ops (including micro ops) committed
system.cpu.cpi                             144.170545                       # CPI: cycles per instruction
system.cpu.discardedOps                      44615941                       # Number of ops (including micro ops) which were discarded before commit
system.cpu.dtb.rdAccesses                    34114169                       # TLB accesses on read requests
system.cpu.dtb.rdMisses                          4480                       # TLB misses on read requests
system.cpu.dtb.walker.pwrStateResidencyTicks::UNDEFINED 3097166537500                       # Cumulative time (in ticks) in various power states
system.cpu.dtb.wrAccesses                    29547983                       # TLB accesses on write requests
system.cpu.dtb.wrMisses                            65                       # TLB misses on write requests
system.cpu.fetch2.amo_instructions                  0                       # Number of memory atomic instructions successfully decoded
system.cpu.fetch2.fp_instructions                   0                       # Number of floating point instructions successfully decoded
system.cpu.fetch2.int_instructions                148                       # Number of integer instructions successfully decoded
system.cpu.fetch2.load_instructions                 0                       # Number of memory load instructions successfully decoded
system.cpu.fetch2.store_instructions                0                       # Number of memory store instructions successfully decoded
system.cpu.fetch2.vec_instructions                  0                       # Number of SIMD instructions successfully decoded
system.cpu.idleCycles                     11933362749                       # Total number of cycles that the object has spent stopped
system.cpu.interrupts.pwrStateResidencyTicks::UNDEFINED 3097166537500                       # Cumulative time (in ticks) in various power states
system.cpu.ipc                               0.006936                       # IPC: instructions per cycle
system.cpu.itb.rdAccesses                           0                       # TLB accesses on read requests
system.cpu.itb.rdMisses                             0                       # TLB misses on read requests
system.cpu.itb.walker.pwrStateResidencyTicks::UNDEFINED 3097166537500                       # Cumulative time (in ticks) in various power states
system.cpu.itb.wrAccesses                    34183090                       # TLB accesses on write requests
system.cpu.itb.wrMisses                           230                       # TLB misses on write requests
system.cpu.numCycles                      12388666150                       # number of cpu cycles simulated
system.cpu.numFetchSuspends                         0                       # Number of times Execute suspended instruction fetching
system.cpu.numWorkItemsCompleted                    0                       # number of work items this cpu completed
system.cpu.numWorkItemsStarted                      0                       # number of work items this cpu started
system.cpu.op_class_0::No_OpClass               19015      0.01%      0.01% # Class of committed instruction
system.cpu.op_class_0::IntAlu               111829165     66.92%     66.93% # Class of committed instruction
system.cpu.op_class_0::IntMult                     22      0.00%     66.93% # Class of committed instruction
system.cpu.op_class_0::IntDiv                   37110      0.02%     66.95% # Class of committed instruction
system.cpu.op_class_0::FloatAdd                    76      0.00%     66.95% # Class of committed instruction
system.cpu.op_class_0::FloatCmp                     0      0.00%     66.95% # Class of committed instruction
system.cpu.op_class_0::FloatCvt                     0      0.00%     66.95% # Class of committed instruction
system.cpu.op_class_0::FloatMult                    0      0.00%     66.95% # Class of committed instruction
system.cpu.op_class_0::FloatMultAcc                 0      0.00%     66.95% # Class of committed instruction
system.cpu.op_class_0::FloatDiv                     0      0.00%     66.95% # Class of committed instruction
system.cpu.op_class_0::FloatMisc                    0      0.00%     66.95% # Class of committed instruction
system.cpu.op_class_0::FloatSqrt                    0      0.00%     66.95% # Class of committed instruction
system.cpu.op_class_0::SimdAdd                   5514      0.00%     66.95% # Class of committed instruction
system.cpu.op_class_0::SimdAddAcc                   0      0.00%     66.95% # Class of committed instruction
system.cpu.op_class_0::SimdAlu                   6474      0.00%     66.96% # Class of committed instruction
system.cpu.op_class_0::SimdCmp                      0      0.00%     66.96% # Class of committed instruction
system.cpu.op_class_0::SimdCvt                  11436      0.01%     66.96% # Class of committed instruction
system.cpu.op_class_0::SimdMisc                  6144      0.00%     66.97% # Class of committed instruction
system.cpu.op_class_0::SimdMult                     0      0.00%     66.97% # Class of committed instruction
system.cpu.op_class_0::SimdMultAcc                  0      0.00%     66.97% # Class of committed instruction
system.cpu.op_class_0::SimdShift                  646      0.00%     66.97% # Class of committed instruction
system.cpu.op_class_0::SimdShiftAcc                 0      0.00%     66.97% # Class of committed instruction
system.cpu.op_class_0::SimdDiv                      0      0.00%     66.97% # Class of committed instruction
system.cpu.op_class_0::SimdSqrt                     0      0.00%     66.97% # Class of committed instruction
system.cpu.op_class_0::SimdFloatAdd                 0      0.00%     66.97% # Class of committed instruction
system.cpu.op_class_0::SimdFloatAlu                 0      0.00%     66.97% # Class of committed instruction
system.cpu.op_class_0::SimdFloatCmp                 0      0.00%     66.97% # Class of committed instruction
system.cpu.op_class_0::SimdFloatCvt                 0      0.00%     66.97% # Class of committed instruction
system.cpu.op_class_0::SimdFloatDiv                 0      0.00%     66.97% # Class of committed instruction
system.cpu.op_class_0::SimdFloatMisc                0      0.00%     66.97% # Class of committed instruction
system.cpu.op_class_0::SimdFloatMult                0      0.00%     66.97% # Class of committed instruction
system.cpu.op_class_0::SimdFloatMultAcc             0      0.00%     66.97% # Class of committed instruction
system.cpu.op_class_0::SimdFloatSqrt                0      0.00%     66.97% # Class of committed instruction
system.cpu.op_class_0::SimdReduceAdd                0      0.00%     66.97% # Class of committed instruction
system.cpu.op_class_0::SimdReduceAlu                0      0.00%     66.97% # Class of committed instruction
system.cpu.op_class_0::SimdReduceCmp                0      0.00%     66.97% # Class of committed instruction
system.cpu.op_class_0::SimdFloatReduceAdd            0      0.00%     66.97% # Class of committed instruction
system.cpu.op_class_0::SimdFloatReduceCmp            0      0.00%     66.97% # Class of committed instruction
system.cpu.op_class_0::SimdAes                      0      0.00%     66.97% # Class of committed instruction
system.cpu.op_class_0::SimdAesMix                   0      0.00%     66.97% # Class of committed instruction
system.cpu.op_class_0::SimdSha1Hash                 0      0.00%     66.97% # Class of committed instruction
system.cpu.op_class_0::SimdSha1Hash2                0      0.00%     66.97% # Class of committed instruction
system.cpu.op_class_0::SimdSha256Hash               0      0.00%     66.97% # Class of committed instruction
system.cpu.op_class_0::SimdSha256Hash2              0      0.00%     66.97% # Class of committed instruction
system.cpu.op_class_0::SimdShaSigma2                0      0.00%     66.97% # Class of committed instruction
system.cpu.op_class_0::SimdShaSigma3                0      0.00%     66.97% # Class of committed instruction
system.cpu.op_class_0::SimdPredAlu                  0      0.00%     66.97% # Class of committed instruction
system.cpu.op_class_0::MemRead               29836012     17.85%     84.82% # Class of committed instruction
system.cpu.op_class_0::MemWrite              25350038     15.17%     99.99% # Class of committed instruction
system.cpu.op_class_0::FloatMemRead             12879      0.01%    100.00% # Class of committed instruction
system.cpu.op_class_0::FloatMemWrite             1941      0.00%    100.00% # Class of committed instruction
system.cpu.op_class_0::IprAccess                    0      0.00%    100.00% # Class of committed instruction
system.cpu.op_class_0::InstPrefetch                 0      0.00%    100.00% # Class of committed instruction
system.cpu.op_class_0::total                167116472                       # Class of committed instruction
system.cpu.pwrStateResidencyTicks::ON    3097166537500                       # Cumulative time (in ticks) in various power states
system.cpu.tickCycles                       455303401                       # Number of cycles that the object actually ticked
system.cpu.workload.numSyscalls                    60                       # Number of system calls
system.mem_ctrl.avgBusLat                     7500.00                       # Average bus latency per DRAM burst
system.mem_ctrl.avgGap                       40295.32                       # Average gap between requests
system.mem_ctrl.avgMemAccLat                 54899.99                       # Average memory access latency per DRAM burst
system.mem_ctrl.avgPriority_.cpu.inst::samples  68366180.00                       # Average QoS priority value for accepted requests
system.mem_ctrl.avgPriority_.cpu.data::samples  15170825.00                       # Average QoS priority value for accepted requests
system.mem_ctrl.avgQLat                      32399.99                       # Average queueing delay per DRAM burst
system.mem_ctrl.avgRdBW                        862.95                       # Average DRAM read bandwidth in MiByte/s
system.mem_ctrl.avgRdBWSys                     733.75                       # Average system read bandwidth in MiByte/s
system.mem_ctrl.avgRdQLen                        2.40                       # Average read queue length when enqueuing
system.mem_ctrl.avgWrBW                          0.15                       # Average achieved write bandwidth in MiByte/s
system.mem_ctrl.avgWrBWSys                      31.61                       # Average system write bandwidth in MiByte/s
system.mem_ctrl.avgWrQLen                       23.50                       # Average write queue length when enqueuing
system.mem_ctrl.busUtil                         20.23                       # Data bus utilization in percentage
system.mem_ctrl.busUtilRead                     20.23                       # Data bus utilization in percentage for reads
system.mem_ctrl.busUtilWrite                     0.00                       # Data bus utilization in percentage for writes
system.mem_ctrl.bw_inst_read::.cpu.inst     706361014                       # Instruction read bandwidth from this memory (bytes/s)
system.mem_ctrl.bw_inst_read::total         706361014                       # Instruction read bandwidth from this memory (bytes/s)
system.mem_ctrl.bw_read::.cpu.inst          706361014                       # Total read bandwidth from this memory (bytes/s)
system.mem_ctrl.bw_read::.cpu.data           27391183                       # Total read bandwidth from this memory (bytes/s)
system.mem_ctrl.bw_read::total              733752197                       # Total read bandwidth from this memory (bytes/s)
system.mem_ctrl.bw_total::.cpu.inst         706361014                       # Total bandwidth to/from this memory (bytes/s)
system.mem_ctrl.bw_total::.cpu.data          58998181                       # Total bandwidth to/from this memory (bytes/s)
system.mem_ctrl.bw_total::total             765359195                       # Total bandwidth to/from this memory (bytes/s)
system.mem_ctrl.bw_write::.cpu.data          31606998                       # Write bandwidth from this memory (bytes/s)
system.mem_ctrl.bw_write::total              31606998                       # Write bandwidth from this memory (bytes/s)
system.mem_ctrl.bytesPerActivate::samples     26428404                       # Bytes accessed per row activation
system.mem_ctrl.bytesPerActivate::mean     101.148087                       # Bytes accessed per row activation
system.mem_ctrl.bytesPerActivate::gmean     67.164784                       # Bytes accessed per row activation
system.mem_ctrl.bytesPerActivate::stdev    112.145321                       # Bytes accessed per row activation
system.mem_ctrl.bytesPerActivate::0-63       10842115     41.02%     41.02% # Bytes accessed per row activation
system.mem_ctrl.bytesPerActivate::64-127      8761558     33.15%     74.18% # Bytes accessed per row activation
system.mem_ctrl.bytesPerActivate::128-191      2210677      8.36%     82.54% # Bytes accessed per row activation
system.mem_ctrl.bytesPerActivate::192-255       327774      1.24%     83.78% # Bytes accessed per row activation
system.mem_ctrl.bytesPerActivate::256-319      2068872      7.83%     91.61% # Bytes accessed per row activation
system.mem_ctrl.bytesPerActivate::320-383      1074333      4.07%     95.67% # Bytes accessed per row activation
system.mem_ctrl.bytesPerActivate::384-447        55206      0.21%     95.88% # Bytes accessed per row activation
system.mem_ctrl.bytesPerActivate::448-511       517765      1.96%     97.84% # Bytes accessed per row activation
system.mem_ctrl.bytesPerActivate::512-575       570104      2.16%    100.00% # Bytes accessed per row activation
system.mem_ctrl.bytesPerActivate::total      26428404                       # Bytes accessed per row activation
system.mem_ctrl.bytesReadDRAM              2672711744                       # Total number of bytes read from DRAM
system.mem_ctrl.bytesReadSys               2272552815                       # Total read bytes from the system interface side
system.mem_ctrl.bytesReadWrQ                 69498304                       # Total number of bytes read from write queue
system.mem_ctrl.bytesWritten                   471552                       # Total number of bytes written to DRAM
system.mem_ctrl.bytesWrittenSys              97892137                       # Total written bytes from the system interface side
system.mem_ctrl.bytes_inst_read::.cpu.inst   2187717696                       # Number of instructions bytes read from this memory
system.mem_ctrl.bytes_inst_read::total     2187717696                       # Number of instructions bytes read from this memory
system.mem_ctrl.bytes_read::.cpu.inst      2187717696                       # Number of bytes read from this memory
system.mem_ctrl.bytes_read::.cpu.data        84835055                       # Number of bytes read from this memory
system.mem_ctrl.bytes_read::total          2272552751                       # Number of bytes read from this memory
system.mem_ctrl.bytes_written::.cpu.data     97892137                       # Number of bytes written to this memory
system.mem_ctrl.bytes_written::total         97892137                       # Number of bytes written to this memory
system.mem_ctrl.masterReadAccesses::.cpu.inst     68366180                       # Per-master read serviced memory accesses
system.mem_ctrl.masterReadAccesses::.cpu.data     17327884                       # Per-master read serviced memory accesses
system.mem_ctrl.masterReadAvgLat::.cpu.inst     49833.42                       # Per-master read average memory access latency
system.mem_ctrl.masterReadAvgLat::.cpu.data     68008.84                       # Per-master read average memory access latency
system.mem_ctrl.masterReadBytes::.cpu.inst   2187717760                       # Per-master bytes read from memory
system.mem_ctrl.masterReadBytes::.cpu.data     75890193                       # Per-master bytes read from memory
system.mem_ctrl.masterReadRate::.cpu.inst 706361034.678458929062                       # Per-master bytes read from memory rate (Bytes/sec)
system.mem_ctrl.masterReadRate::.cpu.data 24503103.750196706504                       # Per-master bytes read from memory rate (Bytes/sec)
system.mem_ctrl.masterReadTotalLat::.cpu.inst 3406920640784                       # Per-master read total memory access latency
system.mem_ctrl.masterReadTotalLat::.cpu.data 1178449204958                       # Per-master read total memory access latency
system.mem_ctrl.masterWriteAccesses::.cpu.data     25351984                       # Per-master write serviced memory accesses
system.mem_ctrl.masterWriteAvgLat::.cpu.data   2868700.13                       # Per-master write average memory access latency
system.mem_ctrl.masterWriteBytes::.cpu.data       113912                       # Per-master bytes write to memory
system.mem_ctrl.masterWriteRate::.cpu.data 36779.423586291407                       # Per-master bytes write to memory rate (Bytes/sec)
system.mem_ctrl.masterWriteTotalLat::.cpu.data 72727239794792                       # Per-master write total memory access latency
system.mem_ctrl.mergedWrBursts               25337221                       # Number of DRAM write bursts merged with an existing one
system.mem_ctrl.neitherReadNorWriteReqs             0                       # Number of requests that are neither read nor write
system.mem_ctrl.numRdRetry                          0                       # Number of times read queue was full causing retry
system.mem_ctrl.numReadWriteTurnArounds           921                       # Number of turnarounds from READ to WRITE
system.mem_ctrl.numStayReadState            156193607                       # Number of times bus staying in READ state
system.mem_ctrl.numStayWriteState               13840                       # Number of times bus staying in WRITE state
system.mem_ctrl.numWrRetry                          0                       # Number of times write queue was full causing retry
system.mem_ctrl.numWriteReadTurnArounds           921                       # Number of turnarounds from WRITE to READ
system.mem_ctrl.num_reads::.cpu.inst         34183089                       # Number of read requests responded to by this memory
system.mem_ctrl.num_reads::.cpu.data         17326613                       # Number of read requests responded to by this memory
system.mem_ctrl.num_reads::total             51509702                       # Number of read requests responded to by this memory
system.mem_ctrl.num_writes::.cpu.data        25351983                       # Number of write requests responded to by this memory
system.mem_ctrl.num_writes::total            25351983                       # Number of write requests responded to by this memory
system.mem_ctrl.pageHitRate                     68.36                       # Row buffer hit rate, read and write combined
system.mem_ctrl.peakBW                        4266.00                       # Theoretical peak bandwidth in MiByte/s
system.mem_ctrl.perBankRdBursts::0              44984                       # Per bank write bursts
system.mem_ctrl.perBankRdBursts::1              48500                       # Per bank write bursts
system.mem_ctrl.perBankRdBursts::2           81962496                       # Per bank write bursts
system.mem_ctrl.perBankRdBursts::3             216063                       # Per bank write bursts
system.mem_ctrl.perBankRdBursts::4             215502                       # Per bank write bursts
system.mem_ctrl.perBankRdBursts::5             248862                       # Per bank write bursts
system.mem_ctrl.perBankRdBursts::6             677803                       # Per bank write bursts
system.mem_ctrl.perBankRdBursts::7             108032                       # Per bank write bursts
system.mem_ctrl.perBankWrBursts::0                735                       # Per bank write bursts
system.mem_ctrl.perBankWrBursts::1                632                       # Per bank write bursts
system.mem_ctrl.perBankWrBursts::2               8667                       # Per bank write bursts
system.mem_ctrl.perBankWrBursts::3               1072                       # Per bank write bursts
system.mem_ctrl.perBankWrBursts::4               1238                       # Per bank write bursts
system.mem_ctrl.perBankWrBursts::5                965                       # Per bank write bursts
system.mem_ctrl.perBankWrBursts::6                736                       # Per bank write bursts
system.mem_ctrl.perBankWrBursts::7                691                       # Per bank write bursts
system.mem_ctrl.priorityMaxLatency       6.091273480000                       # per QoS priority maximum request to response latency (s)
system.mem_ctrl.priorityMinLatency       0.000000022500                       # per QoS priority minimum request to response latency (s)
system.mem_ctrl.pwrStateResidencyTicks::UNDEFINED 3097166537500                       # Cumulative time (in ticks) in various power states
system.mem_ctrl.rdPerTurnAround::samples          921                       # Reads before turning the bus around for writes
system.mem_ctrl.rdPerTurnAround::mean    90686.304017                       # Reads before turning the bus around for writes
system.mem_ctrl.rdPerTurnAround::gmean    1022.261156                       # Reads before turning the bus around for writes
system.mem_ctrl.rdPerTurnAround::stdev   2611967.452018                       # Reads before turning the bus around for writes
system.mem_ctrl.rdPerTurnAround::0-4.1943e+06          920     99.89%     99.89% # Reads before turning the bus around for writes
system.mem_ctrl.rdPerTurnAround::7.54975e+07-7.96918e+07            1      0.11%    100.00% # Reads before turning the bus around for writes
system.mem_ctrl.rdPerTurnAround::total            921                       # Reads before turning the bus around for writes
system.mem_ctrl.rdQLenPdf::0                 30081944                       # What read queue length does an incoming req see
system.mem_ctrl.rdQLenPdf::1                 34196507                       # What read queue length does an incoming req see
system.mem_ctrl.rdQLenPdf::2                 19208741                       # What read queue length does an incoming req see
system.mem_ctrl.rdQLenPdf::3                    33963                       # What read queue length does an incoming req see
system.mem_ctrl.rdQLenPdf::4                      668                       # What read queue length does an incoming req see
system.mem_ctrl.rdQLenPdf::5                      419                       # What read queue length does an incoming req see
system.mem_ctrl.rdQLenPdf::6                        0                       # What read queue length does an incoming req see
system.mem_ctrl.rdQLenPdf::7                        0                       # What read queue length does an incoming req see
system.mem_ctrl.rdQLenPdf::8                        0                       # What read queue length does an incoming req see
system.mem_ctrl.rdQLenPdf::9                        0                       # What read queue length does an incoming req see
system.mem_ctrl.rdQLenPdf::10                       0                       # What read queue length does an incoming req see
system.mem_ctrl.rdQLenPdf::11                       0                       # What read queue length does an incoming req see
system.mem_ctrl.rdQLenPdf::12                       0                       # What read queue length does an incoming req see
system.mem_ctrl.rdQLenPdf::13                       0                       # What read queue length does an incoming req see
system.mem_ctrl.rdQLenPdf::14                       0                       # What read queue length does an incoming req see
system.mem_ctrl.rdQLenPdf::15                       0                       # What read queue length does an incoming req see
system.mem_ctrl.rdQLenPdf::16                       0                       # What read queue length does an incoming req see
system.mem_ctrl.rdQLenPdf::17                       0                       # What read queue length does an incoming req see
system.mem_ctrl.rdQLenPdf::18                       0                       # What read queue length does an incoming req see
system.mem_ctrl.rdQLenPdf::19                       0                       # What read queue length does an incoming req see
system.mem_ctrl.rdQLenPdf::20                       0                       # What read queue length does an incoming req see
system.mem_ctrl.rdQLenPdf::21                       0                       # What read queue length does an incoming req see
system.mem_ctrl.rdQLenPdf::22                       0                       # What read queue length does an incoming req see
system.mem_ctrl.rdQLenPdf::23                       0                       # What read queue length does an incoming req see
system.mem_ctrl.rdQLenPdf::24                       0                       # What read queue length does an incoming req see
system.mem_ctrl.rdQLenPdf::25                       0                       # What read queue length does an incoming req see
system.mem_ctrl.rdQLenPdf::26                       0                       # What read queue length does an incoming req see
system.mem_ctrl.rdQLenPdf::27                       0                       # What read queue length does an incoming req see
system.mem_ctrl.rdQLenPdf::28                       0                       # What read queue length does an incoming req see
system.mem_ctrl.rdQLenPdf::29                       0                       # What read queue length does an incoming req see
system.mem_ctrl.rdQLenPdf::30                       0                       # What read queue length does an incoming req see
system.mem_ctrl.rdQLenPdf::31                       0                       # What read queue length does an incoming req see
system.mem_ctrl.readBursts                   85694064                       # Number of DRAM read bursts, including those serviced by the write queue
system.mem_ctrl.readPktSize::0                6427973                       # Read request sizes (log2)
system.mem_ctrl.readPktSize::1                  11479                       # Read request sizes (log2)
system.mem_ctrl.readPktSize::2                2180761                       # Read request sizes (log2)
system.mem_ctrl.readPktSize::3                8707671                       # Read request sizes (log2)
system.mem_ctrl.readPktSize::4                      0                       # Read request sizes (log2)
system.mem_ctrl.readPktSize::5               68366180                       # Read request sizes (log2)
system.mem_ctrl.readReqs                     51509703                       # Number of read requests accepted
system.mem_ctrl.readRowHitRate                  68.36                       # Row buffer hit rate for reads
system.mem_ctrl.readRowHits                  57096425                       # Number of row buffer hits during reads
system.mem_ctrl.servicedByWrQ                 2171822                       # Number of DRAM read bursts serviced by the write queue
system.mem_ctrl.totBusLat                626416815000                       # Total ticks spent in databus transfers
system.mem_ctrl.totGap                   3097166535750                       # Total gap between requests
system.mem_ctrl.totMemAccLat             4585369845742                       # Total ticks spent from burst creation until serviced by the DRAM
system.mem_ctrl.totQLat                  2706119400742                       # Total ticks spent queuing
system.mem_ctrl.wrPerTurnAround::samples          921                       # Writes before turning the bus around for reads
system.mem_ctrl.wrPerTurnAround::mean              16                       # Writes before turning the bus around for reads
system.mem_ctrl.wrPerTurnAround::gmean      16.000000                       # Writes before turning the bus around for reads
system.mem_ctrl.wrPerTurnAround::16               921    100.00%    100.00% # Writes before turning the bus around for reads
system.mem_ctrl.wrPerTurnAround::total            921                       # Writes before turning the bus around for reads
system.mem_ctrl.wrQLenPdf::0                        1                       # What write queue length does an incoming req see
system.mem_ctrl.wrQLenPdf::1                        1                       # What write queue length does an incoming req see
system.mem_ctrl.wrQLenPdf::2                        1                       # What write queue length does an incoming req see
system.mem_ctrl.wrQLenPdf::3                        1                       # What write queue length does an incoming req see
system.mem_ctrl.wrQLenPdf::4                        1                       # What write queue length does an incoming req see
system.mem_ctrl.wrQLenPdf::5                        1                       # What write queue length does an incoming req see
system.mem_ctrl.wrQLenPdf::6                        1                       # What write queue length does an incoming req see
system.mem_ctrl.wrQLenPdf::7                        1                       # What write queue length does an incoming req see
system.mem_ctrl.wrQLenPdf::8                        1                       # What write queue length does an incoming req see
system.mem_ctrl.wrQLenPdf::9                        1                       # What write queue length does an incoming req see
system.mem_ctrl.wrQLenPdf::10                       1                       # What write queue length does an incoming req see
system.mem_ctrl.wrQLenPdf::11                       1                       # What write queue length does an incoming req see
system.mem_ctrl.wrQLenPdf::12                       1                       # What write queue length does an incoming req see
system.mem_ctrl.wrQLenPdf::13                       1                       # What write queue length does an incoming req see
system.mem_ctrl.wrQLenPdf::14                       1                       # What write queue length does an incoming req see
system.mem_ctrl.wrQLenPdf::15                       1                       # What write queue length does an incoming req see
system.mem_ctrl.wrQLenPdf::16                       1                       # What write queue length does an incoming req see
system.mem_ctrl.wrQLenPdf::17                     769                       # What write queue length does an incoming req see
system.mem_ctrl.wrQLenPdf::18                     856                       # What write queue length does an incoming req see
system.mem_ctrl.wrQLenPdf::19                     900                       # What write queue length does an incoming req see
system.mem_ctrl.wrQLenPdf::20                     926                       # What write queue length does an incoming req see
system.mem_ctrl.wrQLenPdf::21                     929                       # What write queue length does an incoming req see
system.mem_ctrl.wrQLenPdf::22                     933                       # What write queue length does an incoming req see
system.mem_ctrl.wrQLenPdf::23                     932                       # What write queue length does an incoming req see
system.mem_ctrl.wrQLenPdf::24                     951                       # What write queue length does an incoming req see
system.mem_ctrl.wrQLenPdf::25                     938                       # What write queue length does an incoming req see
system.mem_ctrl.wrQLenPdf::26                     940                       # What write queue length does an incoming req see
system.mem_ctrl.wrQLenPdf::27                     935                       # What write queue length does an incoming req see
system.mem_ctrl.wrQLenPdf::28                     981                       # What write queue length does an incoming req see
system.mem_ctrl.wrQLenPdf::29                     945                       # What write queue length does an incoming req see
system.mem_ctrl.wrQLenPdf::30                     932                       # What write queue length does an incoming req see
system.mem_ctrl.wrQLenPdf::31                     938                       # What write queue length does an incoming req see
system.mem_ctrl.wrQLenPdf::32                     932                       # What write queue length does an incoming req see
system.mem_ctrl.wrQLenPdf::33                       9                       # What write queue length does an incoming req see
system.mem_ctrl.wrQLenPdf::34                       0                       # What write queue length does an incoming req see
system.mem_ctrl.wrQLenPdf::35                       0                       # What write queue length does an incoming req see
system.mem_ctrl.wrQLenPdf::36                       0                       # What write queue length does an incoming req see
system.mem_ctrl.wrQLenPdf::37                       0                       # What write queue length does an incoming req see
system.mem_ctrl.wrQLenPdf::38                       0                       # What write queue length does an incoming req see
system.mem_ctrl.wrQLenPdf::39                       0                       # What write queue length does an incoming req see
system.mem_ctrl.wrQLenPdf::40                       0                       # What write queue length does an incoming req see
system.mem_ctrl.wrQLenPdf::41                       0                       # What write queue length does an incoming req see
system.mem_ctrl.wrQLenPdf::42                       0                       # What write queue length does an incoming req see
system.mem_ctrl.wrQLenPdf::43                       0                       # What write queue length does an incoming req see
system.mem_ctrl.wrQLenPdf::44                       0                       # What write queue length does an incoming req see
system.mem_ctrl.wrQLenPdf::45                       0                       # What write queue length does an incoming req see
system.mem_ctrl.wrQLenPdf::46                       0                       # What write queue length does an incoming req see
system.mem_ctrl.wrQLenPdf::47                       0                       # What write queue length does an incoming req see
system.mem_ctrl.wrQLenPdf::48                       0                       # What write queue length does an incoming req see
system.mem_ctrl.wrQLenPdf::49                       0                       # What write queue length does an incoming req see
system.mem_ctrl.wrQLenPdf::50                       0                       # What write queue length does an incoming req see
system.mem_ctrl.wrQLenPdf::51                       0                       # What write queue length does an incoming req see
system.mem_ctrl.wrQLenPdf::52                       0                       # What write queue length does an incoming req see
system.mem_ctrl.wrQLenPdf::53                       0                       # What write queue length does an incoming req see
system.mem_ctrl.wrQLenPdf::54                       0                       # What write queue length does an incoming req see
system.mem_ctrl.wrQLenPdf::55                       0                       # What write queue length does an incoming req see
system.mem_ctrl.wrQLenPdf::56                       0                       # What write queue length does an incoming req see
system.mem_ctrl.wrQLenPdf::57                       0                       # What write queue length does an incoming req see
system.mem_ctrl.wrQLenPdf::58                       0                       # What write queue length does an incoming req see
system.mem_ctrl.wrQLenPdf::59                       0                       # What write queue length does an incoming req see
system.mem_ctrl.wrQLenPdf::60                       0                       # What write queue length does an incoming req see
system.mem_ctrl.wrQLenPdf::61                       0                       # What write queue length does an incoming req see
system.mem_ctrl.wrQLenPdf::62                       0                       # What write queue length does an incoming req see
system.mem_ctrl.wrQLenPdf::63                       0                       # What write queue length does an incoming req see
system.mem_ctrl.writeBursts                  25351984                       # Number of DRAM write bursts, including those merged in the write queue
system.mem_ctrl.writePktSize::0              12583814                       # Write request sizes (log2)
system.mem_ctrl.writePktSize::1                    64                       # Write request sizes (log2)
system.mem_ctrl.writePktSize::2               4209162                       # Write request sizes (log2)
system.mem_ctrl.writePktSize::3               8558944                       # Write request sizes (log2)
system.mem_ctrl.writePktSize::4                     0                       # Write request sizes (log2)
system.mem_ctrl.writePktSize::5                     0                       # Write request sizes (log2)
system.mem_ctrl.writeReqs                    25351983                       # Number of write requests accepted
system.mem_ctrl.writeRowHitRate                 82.25                       # Row buffer hit rate for writes
system.mem_ctrl.writeRowHits                    12143                       # Number of row buffer hits during writes
system.mem_ctrl_0.actBackEnergy          80301198725.400116                       # Energy for active background per rank (pJ)
system.mem_ctrl_0.actEnergy              80393478944.684219                       # Energy for activate commands per rank (pJ)
system.mem_ctrl_0.actPowerDownEnergy     8162261312.673020                       # Energy for active power-down per rank (pJ)
system.mem_ctrl_0.averagePower             122.372688                       # Core power per rank (mW)
system.mem_ctrl_0.memoryStateTime::IDLE    5219650250                       # Time in different power states
system.mem_ctrl_0.memoryStateTime::REF   103637430000                       # Time in different power states
system.mem_ctrl_0.memoryStateTime::SREF         12000                       # Time in different power states
system.mem_ctrl_0.memoryStateTime::PRE_PDN  11771120602                       # Time in different power states
system.mem_ctrl_0.memoryStateTime::ACT   2282468429530                       # Time in different power states
system.mem_ctrl_0.memoryStateTime::ACT_PDN 694069895118                       # Time in different power states
system.mem_ctrl_0.preBackEnergy          16179777436.842636                       # Energy for precharge background per rank (pJ)
system.mem_ctrl_0.preEnergy              28319916588.496334                       # Energy for precharge commands per rank (pJ)
system.mem_ctrl_0.prePowerDownEnergy     24011924.358255                       # Energy for precharge power-down per rank (pJ)
system.mem_ctrl_0.readEnergy             143463278482.330231                       # Energy for read commands per rank (pJ)
system.mem_ctrl_0.refreshEnergy          22141881812.164509                       # Energy for refresh commands per rank (pJ)
system.mem_ctrl_0.selfRefreshEnergy      55548.360000                       # Energy for self refresh per rank (pJ)
system.mem_ctrl_0.totalEnergy            379008594826.862366                       # Total energy per rank (pJ)
system.mem_ctrl_0.totalIdleTime          705841027720                       # Total Idle time Per DRAM Rank
system.mem_ctrl_0.writeEnergy            22723972.992000                       # Energy for write commands per rank (pJ)
system.membus.pkt_count_system.cpu.fetch1.icache_port::system.mem_ctrl.port     68366179                       # Packet count per connected master and slave (bytes)
system.membus.pkt_count_system.cpu.fetch1.icache_port::total     68366179                       # Packet count per connected master and slave (bytes)
system.membus.pkt_count_system.cpu.execute.dcache_port::system.mem_ctrl.port     85357192                       # Packet count per connected master and slave (bytes)
system.membus.pkt_count_system.cpu.execute.dcache_port::total     85357192                       # Packet count per connected master and slave (bytes)
system.membus.pkt_count::total              153723371                       # Packet count per connected master and slave (bytes)
system.membus.pkt_size_system.cpu.fetch1.icache_port::system.mem_ctrl.port   2187717696                       # Cumulative packet size per connected master and slave (bytes)
system.membus.pkt_size_system.cpu.fetch1.icache_port::total   2187717696                       # Cumulative packet size per connected master and slave (bytes)
system.membus.pkt_size_system.cpu.execute.dcache_port::system.mem_ctrl.port    182727192                       # Cumulative packet size per connected master and slave (bytes)
system.membus.pkt_size_system.cpu.execute.dcache_port::total    182727192                       # Cumulative packet size per connected master and slave (bytes)
system.membus.pkt_size::total              2370444888                       # Cumulative packet size per connected master and slave (bytes)
system.membus.pwrStateResidencyTicks::UNDEFINED 3097166537500                       # Cumulative time (in ticks) in various power states
system.membus.reqLayer2.occupancy         25553417250                       # Layer occupancy (ticks)
system.membus.reqLayer2.utilization               0.8                       # Layer utilization (%)
system.membus.respLayer0.occupancy        42760899358                       # Layer occupancy (ticks)
system.membus.respLayer0.utilization              1.4                       # Layer utilization (%)
system.membus.respLayer1.occupancy        15013912671                       # Layer occupancy (ticks)
system.membus.respLayer1.utilization              0.5                       # Layer utilization (%)
system.membus.snoopTraffic                          0                       # Total snoop traffic (bytes)
system.membus.snoop_fanout::samples          76861686                       # Request fanout histogram
system.membus.snoop_fanout::mean                    0                       # Request fanout histogram
system.membus.snoop_fanout::stdev                   0                       # Request fanout histogram
system.membus.snoop_fanout::underflows              0      0.00%      0.00% # Request fanout histogram
system.membus.snoop_fanout::0                76861686    100.00%    100.00% # Request fanout histogram
system.membus.snoop_fanout::1                       0      0.00%    100.00% # Request fanout histogram
system.membus.snoop_fanout::overflows               0      0.00%    100.00% # Request fanout histogram
system.membus.snoop_fanout::min_value               0                       # Request fanout histogram
system.membus.snoop_fanout::max_value               0                       # Request fanout histogram
system.membus.snoop_fanout::total            76861686                       # Request fanout histogram
system.membus.snoop_filter.hit_multi_requests            0                       # Number of requests hitting in the snoop filter with multiple (>1) holders of the requested data.
system.membus.snoop_filter.hit_multi_snoops            0                       # Number of snoops hitting in the snoop filter with multiple (>1) holders of the requested data.
system.membus.snoop_filter.hit_single_requests            0                       # Number of requests hitting in the snoop filter with a single holder of the requested data.
system.membus.snoop_filter.hit_single_snoops            0                       # Number of snoops hitting in the snoop filter with a single holder of the requested data.
system.membus.snoop_filter.tot_requests             0                       # Total number of requests made to the snoop filter.
system.membus.snoop_filter.tot_snoops               0                       # Total number of snoops made to the snoop filter.
system.membus.snoops                                0                       # Total snoops (count)
system.membus.trans_dist::ReadReq            51509703                       # Transaction distribution
system.membus.trans_dist::ReadResp           51509702                       # Transaction distribution
system.membus.trans_dist::WriteReq           25351983                       # Transaction distribution
system.membus.trans_dist::WriteResp          25351983                       # Transaction distribution

---------- End Simulation Statistics   ----------
