
---------- Begin Simulation Statistics ----------
final_tick                               5136656532250                       # Number of ticks from beginning of simulation (restored from checkpoints and never reset)
host_inst_rate                                 182828                       # Simulator instruction rate (inst/s)
host_mem_usage                                 707740                       # Number of bytes of host memory used
host_op_rate                                   375971                       # Simulator op (including micro ops) rate (op/s)
host_seconds                                   340.44                       # Real time elapsed on the host
host_tick_rate                            15088390208                       # Simulator tick rate (ticks/s)
sim_freq                                 1000000000000                       # Frequency of simulated ticks
sim_insts                                    62241523                       # Number of instructions simulated
sim_ops                                     127994556                       # Number of ops (including micro ops) simulated
sim_seconds                                  5.136657                       # Number of seconds simulated
sim_ticks                                5136656532250                       # Number of ticks simulated
system.clk_domain.clock                           250                       # Clock period in ticks
system.clk_domain.voltage_domain.voltage            1                       # Voltage in Volts
system.cpu.Branches                          14640572                       # Number of branches fetched
system.cpu.apic_clk_domain.clock                 4000                       # Clock period in ticks
system.cpu.committedInsts                    62241523                       # Number of instructions committed
system.cpu.committedOps                     127994556                       # Number of ops (including micro ops) committed
system.cpu.dtb.rdAccesses                    19232397                       # TLB accesses on read requests
system.cpu.dtb.rdMisses                           850                       # TLB misses on read requests
system.cpu.dtb.walker.pwrStateResidencyTicks::UNDEFINED 5136656532250                       # Cumulative time (in ticks) in various power states
system.cpu.dtb.wrAccesses                     9656196                       # TLB accesses on write requests
system.cpu.dtb.wrMisses                            56                       # TLB misses on write requests
system.cpu.idle_fraction                     0.000000                       # Percentage of idle cycles
system.cpu.interrupts.pwrStateResidencyTicks::UNDEFINED 5136656532250                       # Cumulative time (in ticks) in various power states
system.cpu.itb.rdAccesses                           0                       # TLB accesses on read requests
system.cpu.itb.rdMisses                             0                       # TLB misses on read requests
system.cpu.itb.walker.pwrStateResidencyTicks::UNDEFINED 5136656532250                       # Cumulative time (in ticks) in various power states
system.cpu.itb.wrAccesses                    79881499                       # TLB accesses on write requests
system.cpu.itb.wrMisses                           232                       # TLB misses on write requests
system.cpu.not_idle_fraction                 1.000000                       # Percentage of non-idle cycles
system.cpu.numCycles                      20546626129                       # number of cpu cycles simulated
system.cpu.numWorkItemsCompleted                    0                       # number of work items this cpu completed
system.cpu.numWorkItemsStarted                      0                       # number of work items this cpu started
system.cpu.num_busy_cycles               20546626128.995998                       # Number of busy cycles
system.cpu.num_cc_register_reads             65943150                       # number of times the CC registers were read
system.cpu.num_cc_register_writes            34301837                       # number of times the CC registers were written
system.cpu.num_conditional_control_insts      9716214                       # number of instructions that are conditional controls
system.cpu.num_fp_alu_accesses                1487384                       # Number of float alu accesses
system.cpu.num_fp_insts                       1487384                       # number of float instructions
system.cpu.num_fp_register_reads              2433411                       # number of times the floating registers were read
system.cpu.num_fp_register_writes             1217323                       # number of times the floating registers were written
system.cpu.num_func_calls                     3003988                       # number of times a function call or return occured
system.cpu.num_idle_cycles                   0.004001                       # Number of idle cycles
system.cpu.num_int_alu_accesses             126735013                       # Number of integer alu accesses
system.cpu.num_int_insts                    126735013                       # number of integer instructions
system.cpu.num_int_register_reads           256425037                       # number of times the integer registers were read
system.cpu.num_int_register_writes          102477585                       # number of times the integer registers were written
system.cpu.num_load_insts                    19166829                       # Number of load instructions
system.cpu.num_mem_refs                      28823020                       # number of memory refs
system.cpu.num_store_insts                    9656191                       # Number of store instructions
system.cpu.num_vec_alu_accesses                     0                       # Number of vector alu accesses
system.cpu.num_vec_insts                            0                       # number of vector instructions
system.cpu.num_vec_register_reads                   0                       # number of times the vector registers were read
system.cpu.num_vec_register_writes                  0                       # number of times the vector registers were written
system.cpu.op_class::No_OpClass                314018      0.25%      0.25% # Class of executed instruction
system.cpu.op_class::IntAlu                  97429982     76.12%     76.37% # Class of executed instruction
system.cpu.op_class::IntMult                   180302      0.14%     76.51% # Class of executed instruction
system.cpu.op_class::IntDiv                     37162      0.03%     76.54% # Class of executed instruction
system.cpu.op_class::FloatAdd                      82      0.00%     76.54% # Class of executed instruction
system.cpu.op_class::FloatCmp                       0      0.00%     76.54% # Class of executed instruction
system.cpu.op_class::FloatCvt                       0      0.00%     76.54% # Class of executed instruction
system.cpu.op_class::FloatMult                      0      0.00%     76.54% # Class of executed instruction
system.cpu.op_class::FloatMultAcc                   0      0.00%     76.54% # Class of executed instruction
system.cpu.op_class::FloatDiv                       0      0.00%     76.54% # Class of executed instruction
system.cpu.op_class::FloatMisc                      0      0.00%     76.54% # Class of executed instruction
system.cpu.op_class::FloatSqrt                      0      0.00%     76.54% # Class of executed instruction
system.cpu.op_class::SimdAdd                     5542      0.00%     76.54% # Class of executed instruction
system.cpu.op_class::SimdAddAcc                     0      0.00%     76.54% # Class of executed instruction
system.cpu.op_class::SimdAlu                   661836      0.52%     77.06% # Class of executed instruction
system.cpu.op_class::SimdCmp                        0      0.00%     77.06% # Class of executed instruction
system.cpu.op_class::SimdCvt                   273628      0.21%     77.27% # Class of executed instruction
system.cpu.op_class::SimdMisc                  268308      0.21%     77.48% # Class of executed instruction
system.cpu.op_class::SimdMult                       0      0.00%     77.48% # Class of executed instruction
system.cpu.op_class::SimdMultAcc                    0      0.00%     77.48% # Class of executed instruction
system.cpu.op_class::SimdShift                    676      0.00%     77.48% # Class of executed instruction
system.cpu.op_class::SimdShiftAcc                   0      0.00%     77.48% # Class of executed instruction
system.cpu.op_class::SimdDiv                        0      0.00%     77.48% # Class of executed instruction
system.cpu.op_class::SimdSqrt                       0      0.00%     77.48% # Class of executed instruction
system.cpu.op_class::SimdFloatAdd                   0      0.00%     77.48% # Class of executed instruction
system.cpu.op_class::SimdFloatAlu                   0      0.00%     77.48% # Class of executed instruction
system.cpu.op_class::SimdFloatCmp                   0      0.00%     77.48% # Class of executed instruction
system.cpu.op_class::SimdFloatCvt                   0      0.00%     77.48% # Class of executed instruction
system.cpu.op_class::SimdFloatDiv                   0      0.00%     77.48% # Class of executed instruction
system.cpu.op_class::SimdFloatMisc                  0      0.00%     77.48% # Class of executed instruction
system.cpu.op_class::SimdFloatMult                  0      0.00%     77.48% # Class of executed instruction
system.cpu.op_class::SimdFloatMultAcc               0      0.00%     77.48% # Class of executed instruction
system.cpu.op_class::SimdFloatSqrt                  0      0.00%     77.48% # Class of executed instruction
system.cpu.op_class::SimdReduceAdd                  0      0.00%     77.48% # Class of executed instruction
system.cpu.op_class::SimdReduceAlu                  0      0.00%     77.48% # Class of executed instruction
system.cpu.op_class::SimdReduceCmp                  0      0.00%     77.48% # Class of executed instruction
system.cpu.op_class::SimdFloatReduceAdd             0      0.00%     77.48% # Class of executed instruction
system.cpu.op_class::SimdFloatReduceCmp             0      0.00%     77.48% # Class of executed instruction
system.cpu.op_class::SimdAes                        0      0.00%     77.48% # Class of executed instruction
system.cpu.op_class::SimdAesMix                     0      0.00%     77.48% # Class of executed instruction
system.cpu.op_class::SimdSha1Hash                   0      0.00%     77.48% # Class of executed instruction
system.cpu.op_class::SimdSha1Hash2                  0      0.00%     77.48% # Class of executed instruction
system.cpu.op_class::SimdSha256Hash                 0      0.00%     77.48% # Class of executed instruction
system.cpu.op_class::SimdSha256Hash2                0      0.00%     77.48% # Class of executed instruction
system.cpu.op_class::SimdShaSigma2                  0      0.00%     77.48% # Class of executed instruction
system.cpu.op_class::SimdShaSigma3                  0      0.00%     77.48% # Class of executed instruction
system.cpu.op_class::SimdPredAlu                    0      0.00%     77.48% # Class of executed instruction
system.cpu.op_class::MemRead                 18891696     14.76%     92.24% # Class of executed instruction
system.cpu.op_class::MemWrite                 9654186      7.54%     99.78% # Class of executed instruction
system.cpu.op_class::FloatMemRead              275133      0.21%    100.00% # Class of executed instruction
system.cpu.op_class::FloatMemWrite               2005      0.00%    100.00% # Class of executed instruction
system.cpu.op_class::IprAccess                      0      0.00%    100.00% # Class of executed instruction
system.cpu.op_class::InstPrefetch                   0      0.00%    100.00% # Class of executed instruction
system.cpu.op_class::total                  127994556                       # Class of executed instruction
system.cpu.pwrStateResidencyTicks::ON    5136656532250                       # Cumulative time (in ticks) in various power states
system.cpu.workload.numSyscalls                 32826                       # Number of system calls
system.mem_ctrl.avgBusLat                     5000.00                       # Average bus latency per DRAM burst
system.mem_ctrl.avgGap                       47224.90                       # Average gap between requests
system.mem_ctrl.avgMemAccLat                 28954.50                       # Average memory access latency per DRAM burst
system.mem_ctrl.avgPriority_.cpu.inst::samples  79881499.00                       # Average QoS priority value for accepted requests
system.mem_ctrl.avgPriority_.cpu.data::samples  17108650.00                       # Average QoS priority value for accepted requests
system.mem_ctrl.avgQLat                      10204.50                       # Average queueing delay per DRAM burst
system.mem_ctrl.avgRdBW                       1208.36                       # Average DRAM read bandwidth in MiByte/s
system.mem_ctrl.avgRdBWSys                     149.28                       # Average system read bandwidth in MiByte/s
system.mem_ctrl.avgRdQLen                        1.00                       # Average read queue length when enqueuing
system.mem_ctrl.avgWrBW                          0.08                       # Average achieved write bandwidth in MiByte/s
system.mem_ctrl.avgWrBWSys                      13.22                       # Average system write bandwidth in MiByte/s
system.mem_ctrl.avgWrQLen                       29.44                       # Average write queue length when enqueuing
system.mem_ctrl.busUtil                          9.44                       # Data bus utilization in percentage
system.mem_ctrl.busUtilRead                      9.44                       # Data bus utilization in percentage for reads
system.mem_ctrl.busUtilWrite                     0.00                       # Data bus utilization in percentage for writes
system.mem_ctrl.bw_inst_read::.cpu.inst     124410108                       # Instruction read bandwidth from this memory (bytes/s)
system.mem_ctrl.bw_inst_read::total         124410108                       # Instruction read bandwidth from this memory (bytes/s)
system.mem_ctrl.bw_read::.cpu.inst          124410108                       # Total read bandwidth from this memory (bytes/s)
system.mem_ctrl.bw_read::.cpu.data           24872551                       # Total read bandwidth from this memory (bytes/s)
system.mem_ctrl.bw_read::total              149282659                       # Total read bandwidth from this memory (bytes/s)
system.mem_ctrl.bw_total::.cpu.inst         124410108                       # Total bandwidth to/from this memory (bytes/s)
system.mem_ctrl.bw_total::.cpu.data          38096407                       # Total bandwidth to/from this memory (bytes/s)
system.mem_ctrl.bw_total::total             162506515                       # Total bandwidth to/from this memory (bytes/s)
system.mem_ctrl.bw_write::.cpu.data          13223856                       # Write bandwidth from this memory (bytes/s)
system.mem_ctrl.bw_write::total              13223856                       # Write bandwidth from this memory (bytes/s)
system.mem_ctrl.bytesPerActivate::samples     12764338                       # Bytes accessed per row activation
system.mem_ctrl.bytesPerActivate::mean     486.305493                       # Bytes accessed per row activation
system.mem_ctrl.bytesPerActivate::gmean    283.345602                       # Bytes accessed per row activation
system.mem_ctrl.bytesPerActivate::stdev    408.441084                       # Bytes accessed per row activation
system.mem_ctrl.bytesPerActivate::0-127       3786795     29.67%     29.67% # Bytes accessed per row activation
system.mem_ctrl.bytesPerActivate::128-255      1731164     13.56%     43.23% # Bytes accessed per row activation
system.mem_ctrl.bytesPerActivate::256-383       909871      7.13%     50.36% # Bytes accessed per row activation
system.mem_ctrl.bytesPerActivate::384-511       935338      7.33%     57.69% # Bytes accessed per row activation
system.mem_ctrl.bytesPerActivate::512-639       557682      4.37%     62.05% # Bytes accessed per row activation
system.mem_ctrl.bytesPerActivate::640-767       294675      2.31%     64.36% # Bytes accessed per row activation
system.mem_ctrl.bytesPerActivate::768-895       370915      2.91%     67.27% # Bytes accessed per row activation
system.mem_ctrl.bytesPerActivate::896-1023       455804      3.57%     70.84% # Bytes accessed per row activation
system.mem_ctrl.bytesPerActivate::1024-1151      3722094     29.16%    100.00% # Bytes accessed per row activation
system.mem_ctrl.bytesPerActivate::total      12764338                       # Bytes accessed per row activation
system.mem_ctrl.bytesReadDRAM              6206948224                       # Total number of bytes read from DRAM
system.mem_ctrl.bytesReadSys                766813746                       # Total read bytes from the system interface side
system.mem_ctrl.bytesReadWrQ                136341120                       # Total number of bytes read from write queue
system.mem_ctrl.bytesWritten                   420096                       # Total number of bytes written to DRAM
system.mem_ctrl.bytesWrittenSys              67926405                       # Total written bytes from the system interface side
system.mem_ctrl.bytes_inst_read::.cpu.inst    639051992                       # Number of instructions bytes read from this memory
system.mem_ctrl.bytes_inst_read::total      639051992                       # Number of instructions bytes read from this memory
system.mem_ctrl.bytes_read::.cpu.inst       639051992                       # Number of bytes read from this memory
system.mem_ctrl.bytes_read::.cpu.data       127761754                       # Number of bytes read from this memory
system.mem_ctrl.bytes_read::total           766813746                       # Number of bytes read from this memory
system.mem_ctrl.bytes_written::.cpu.data     67926405                       # Number of bytes written to this memory
system.mem_ctrl.bytes_written::total         67926405                       # Number of bytes written to this memory
system.mem_ctrl.masterReadAccesses::.cpu.inst     79881499                       # Per-master read serviced memory accesses
system.mem_ctrl.masterReadAccesses::.cpu.data     19232397                       # Per-master read serviced memory accesses
system.mem_ctrl.masterReadAvgLat::.cpu.inst     27957.19                       # Per-master read average memory access latency
system.mem_ctrl.masterReadAvgLat::.cpu.data     29889.58                       # Per-master read average memory access latency
system.mem_ctrl.masterReadBytes::.cpu.inst    639051992                       # Per-master bytes read from memory
system.mem_ctrl.masterReadBytes::.cpu.data    112912217                       # Per-master bytes read from memory
system.mem_ctrl.masterReadRate::.cpu.inst 124410107.623076230288                       # Per-master bytes read from memory rate (Bytes/sec)
system.mem_ctrl.masterReadRate::.cpu.data 21981656.022958043963                       # Per-master bytes read from memory rate (Bytes/sec)
system.mem_ctrl.masterReadTotalLat::.cpu.inst 2233262593250                       # Per-master read total memory access latency
system.mem_ctrl.masterReadTotalLat::.cpu.data 574848214500                       # Per-master read total memory access latency
system.mem_ctrl.masterWriteAccesses::.cpu.data      9656196                       # Per-master write serviced memory accesses
system.mem_ctrl.masterWriteAvgLat::.cpu.data  15653328.06                       # Per-master write average memory access latency
system.mem_ctrl.masterWriteBytes::.cpu.data        50556                       # Per-master bytes write to memory
system.mem_ctrl.masterWriteRate::.cpu.data 9842.199820562082                       # Per-master bytes write to memory rate (Bytes/sec)
system.mem_ctrl.masterWriteTotalLat::.cpu.data 151151603792000                       # Per-master write total memory access latency
system.mem_ctrl.mergedWrBursts                9649613                       # Number of DRAM write bursts merged with an existing one
system.mem_ctrl.neitherReadNorWriteReqs             0                       # Number of requests that are neither read nor write
system.mem_ctrl.numRdRetry                          0                       # Number of times read queue was full causing retry
system.mem_ctrl.numReadWriteTurnArounds           410                       # Number of turnarounds from READ to WRITE
system.mem_ctrl.numStayReadState            204933480                       # Number of times bus staying in READ state
system.mem_ctrl.numStayWriteState                6184                       # Number of times bus staying in WRITE state
system.mem_ctrl.numWrRetry                          0                       # Number of times write queue was full causing retry
system.mem_ctrl.numWriteReadTurnArounds           410                       # Number of turnarounds from WRITE to READ
system.mem_ctrl.num_reads::.cpu.inst         79881499                       # Number of read requests responded to by this memory
system.mem_ctrl.num_reads::.cpu.data         19232397                       # Number of read requests responded to by this memory
system.mem_ctrl.num_reads::total             99113896                       # Number of read requests responded to by this memory
system.mem_ctrl.num_writes::.cpu.data         9656196                       # Number of write requests responded to by this memory
system.mem_ctrl.num_writes::total             9656196                       # Number of write requests responded to by this memory
system.mem_ctrl.pageHitRate                     86.84                       # Row buffer hit rate, read and write combined
system.mem_ctrl.peakBW                       12800.00                       # Theoretical peak bandwidth in MiByte/s
system.mem_ctrl.perBankRdBursts::0            3610895                       # Per bank write bursts
system.mem_ctrl.perBankRdBursts::1            1972487                       # Per bank write bursts
system.mem_ctrl.perBankRdBursts::2             443792                       # Per bank write bursts
system.mem_ctrl.perBankRdBursts::3            2154997                       # Per bank write bursts
system.mem_ctrl.perBankRdBursts::4           15365311                       # Per bank write bursts
system.mem_ctrl.perBankRdBursts::5            9685581                       # Per bank write bursts
system.mem_ctrl.perBankRdBursts::6            8118547                       # Per bank write bursts
system.mem_ctrl.perBankRdBursts::7            1034271                       # Per bank write bursts
system.mem_ctrl.perBankRdBursts::8            2341069                       # Per bank write bursts
system.mem_ctrl.perBankRdBursts::9            5914265                       # Per bank write bursts
system.mem_ctrl.perBankRdBursts::10          20705226                       # Per bank write bursts
system.mem_ctrl.perBankRdBursts::11          21398156                       # Per bank write bursts
system.mem_ctrl.perBankRdBursts::12           4014857                       # Per bank write bursts
system.mem_ctrl.perBankRdBursts::13             37307                       # Per bank write bursts
system.mem_ctrl.perBankRdBursts::14             17069                       # Per bank write bursts
system.mem_ctrl.perBankRdBursts::15            169736                       # Per bank write bursts
system.mem_ctrl.perBankWrBursts::0                  2                       # Per bank write bursts
system.mem_ctrl.perBankWrBursts::1                 31                       # Per bank write bursts
system.mem_ctrl.perBankWrBursts::2                 33                       # Per bank write bursts
system.mem_ctrl.perBankWrBursts::3                117                       # Per bank write bursts
system.mem_ctrl.perBankWrBursts::4                145                       # Per bank write bursts
system.mem_ctrl.perBankWrBursts::5                663                       # Per bank write bursts
system.mem_ctrl.perBankWrBursts::6               3214                       # Per bank write bursts
system.mem_ctrl.perBankWrBursts::7                640                       # Per bank write bursts
system.mem_ctrl.perBankWrBursts::8                333                       # Per bank write bursts
system.mem_ctrl.perBankWrBursts::9                388                       # Per bank write bursts
system.mem_ctrl.perBankWrBursts::10               614                       # Per bank write bursts
system.mem_ctrl.perBankWrBursts::11               155                       # Per bank write bursts
system.mem_ctrl.perBankWrBursts::12               195                       # Per bank write bursts
system.mem_ctrl.perBankWrBursts::13                34                       # Per bank write bursts
system.mem_ctrl.perBankWrBursts::14                 0                       # Per bank write bursts
system.mem_ctrl.perBankWrBursts::15                 0                       # Per bank write bursts
system.mem_ctrl.priorityMaxLatency       9.930864107250                       # per QoS priority maximum request to response latency (s)
system.mem_ctrl.priorityMinLatency       0.000000018750                       # per QoS priority minimum request to response latency (s)
system.mem_ctrl.pwrStateResidencyTicks::UNDEFINED 5136656532250                       # Cumulative time (in ticks) in various power states
system.mem_ctrl.rdPerTurnAround::samples          410                       # Reads before turning the bus around for writes
system.mem_ctrl.rdPerTurnAround::mean    236544.921951                       # Reads before turning the bus around for writes
system.mem_ctrl.rdPerTurnAround::stdev   3659016.909082                       # Reads before turning the bus around for writes
system.mem_ctrl.rdPerTurnAround::0-4.1943e+06          408     99.51%     99.51% # Reads before turning the bus around for writes
system.mem_ctrl.rdPerTurnAround::2.09715e+07-2.51658e+07            1      0.24%     99.76% # Reads before turning the bus around for writes
system.mem_ctrl.rdPerTurnAround::6.71089e+07-7.13032e+07            1      0.24%    100.00% # Reads before turning the bus around for writes
system.mem_ctrl.rdPerTurnAround::total            410                       # Reads before turning the bus around for writes
system.mem_ctrl.rdQLenPdf::0                 96918001                       # What read queue length does an incoming req see
system.mem_ctrl.rdQLenPdf::1                    65565                       # What read queue length does an incoming req see
system.mem_ctrl.rdQLenPdf::2                        0                       # What read queue length does an incoming req see
system.mem_ctrl.rdQLenPdf::3                        0                       # What read queue length does an incoming req see
system.mem_ctrl.rdQLenPdf::4                        0                       # What read queue length does an incoming req see
system.mem_ctrl.rdQLenPdf::5                        0                       # What read queue length does an incoming req see
system.mem_ctrl.rdQLenPdf::6                        0                       # What read queue length does an incoming req see
system.mem_ctrl.rdQLenPdf::7                        0                       # What read queue length does an incoming req see
system.mem_ctrl.rdQLenPdf::8                        0                       # What read queue length does an incoming req see
system.mem_ctrl.rdQLenPdf::9                        0                       # What read queue length does an incoming req see
system.mem_ctrl.rdQLenPdf::10                       0                       # What read queue length does an incoming req see
system.mem_ctrl.rdQLenPdf::11                       0                       # What read queue length does an incoming req see
system.mem_ctrl.rdQLenPdf::12                       0                       # What read queue length does an incoming req see
system.mem_ctrl.rdQLenPdf::13                       0                       # What read queue length does an incoming req see
system.mem_ctrl.rdQLenPdf::14                       0                       # What read queue length does an incoming req see
system.mem_ctrl.rdQLenPdf::15                       0                       # What read queue length does an incoming req see
system.mem_ctrl.rdQLenPdf::16                       0                       # What read queue length does an incoming req see
system.mem_ctrl.rdQLenPdf::17                       0                       # What read queue length does an incoming req see
system.mem_ctrl.rdQLenPdf::18                       0                       # What read queue length does an incoming req see
system.mem_ctrl.rdQLenPdf::19                       0                       # What read queue length does an incoming req see
system.mem_ctrl.rdQLenPdf::20                       0                       # What read queue length does an incoming req see
system.mem_ctrl.rdQLenPdf::21                       0                       # What read queue length does an incoming req see
system.mem_ctrl.rdQLenPdf::22                       0                       # What read queue length does an incoming req see
system.mem_ctrl.rdQLenPdf::23                       0                       # What read queue length does an incoming req see
system.mem_ctrl.rdQLenPdf::24                       0                       # What read queue length does an incoming req see
system.mem_ctrl.rdQLenPdf::25                       0                       # What read queue length does an incoming req see
system.mem_ctrl.rdQLenPdf::26                       0                       # What read queue length does an incoming req see
system.mem_ctrl.rdQLenPdf::27                       0                       # What read queue length does an incoming req see
system.mem_ctrl.rdQLenPdf::28                       0                       # What read queue length does an incoming req see
system.mem_ctrl.rdQLenPdf::29                       0                       # What read queue length does an incoming req see
system.mem_ctrl.rdQLenPdf::30                       0                       # What read queue length does an incoming req see
system.mem_ctrl.rdQLenPdf::31                       0                       # What read queue length does an incoming req see
system.mem_ctrl.readBursts                   99113896                       # Number of DRAM read bursts, including those serviced by the write queue
system.mem_ctrl.readPktSize::0                1967077                       # Read request sizes (log2)
system.mem_ctrl.readPktSize::1                 141341                       # Read request sizes (log2)
system.mem_ctrl.readPktSize::2                2837178                       # Read request sizes (log2)
system.mem_ctrl.readPktSize::3               94168300                       # Read request sizes (log2)
system.mem_ctrl.readPktSize::4                      0                       # Read request sizes (log2)
system.mem_ctrl.readPktSize::5                      0                       # Read request sizes (log2)
system.mem_ctrl.readPktSize::6                      0                       # Read request sizes (log2)
system.mem_ctrl.readReqs                     99113896                       # Number of read requests accepted
system.mem_ctrl.readRowHitRate                  86.84                       # Row buffer hit rate for reads
system.mem_ctrl.readRowHits                  84220119                       # Number of row buffer hits during reads
system.mem_ctrl.servicedByWrQ                 2130330                       # Number of DRAM read bursts serviced by the write queue
system.mem_ctrl.totBusLat                484917830000                       # Total ticks spent in databus transfers
system.mem_ctrl.totGap                   5136656416250                       # Total gap between requests
system.mem_ctrl.totMemAccLat             2808110807750                       # Total ticks spent from burst creation until serviced by the DRAM
system.mem_ctrl.totQLat                  989668945250                       # Total ticks spent queuing
system.mem_ctrl.wrPerTurnAround::samples          410                       # Writes before turning the bus around for reads
system.mem_ctrl.wrPerTurnAround::mean       16.009756                       # Writes before turning the bus around for reads
system.mem_ctrl.wrPerTurnAround::gmean      16.009195                       # Writes before turning the bus around for reads
system.mem_ctrl.wrPerTurnAround::stdev       0.139515                       # Writes before turning the bus around for reads
system.mem_ctrl.wrPerTurnAround::16               408     99.51%     99.51% # Writes before turning the bus around for reads
system.mem_ctrl.wrPerTurnAround::18                 2      0.49%    100.00% # Writes before turning the bus around for reads
system.mem_ctrl.wrPerTurnAround::total            410                       # Writes before turning the bus around for reads
system.mem_ctrl.wrQLenPdf::0                        1                       # What write queue length does an incoming req see
system.mem_ctrl.wrQLenPdf::1                        1                       # What write queue length does an incoming req see
system.mem_ctrl.wrQLenPdf::2                        1                       # What write queue length does an incoming req see
system.mem_ctrl.wrQLenPdf::3                        1                       # What write queue length does an incoming req see
system.mem_ctrl.wrQLenPdf::4                        1                       # What write queue length does an incoming req see
system.mem_ctrl.wrQLenPdf::5                        1                       # What write queue length does an incoming req see
system.mem_ctrl.wrQLenPdf::6                        1                       # What write queue length does an incoming req see
system.mem_ctrl.wrQLenPdf::7                        1                       # What write queue length does an incoming req see
system.mem_ctrl.wrQLenPdf::8                        1                       # What write queue length does an incoming req see
system.mem_ctrl.wrQLenPdf::9                        1                       # What write queue length does an incoming req see
system.mem_ctrl.wrQLenPdf::10                       1                       # What write queue length does an incoming req see
system.mem_ctrl.wrQLenPdf::11                       1                       # What write queue length does an incoming req see
system.mem_ctrl.wrQLenPdf::12                       1                       # What write queue length does an incoming req see
system.mem_ctrl.wrQLenPdf::13                       1                       # What write queue length does an incoming req see
system.mem_ctrl.wrQLenPdf::14                       1                       # What write queue length does an incoming req see
system.mem_ctrl.wrQLenPdf::15                       3                       # What write queue length does an incoming req see
system.mem_ctrl.wrQLenPdf::16                       3                       # What write queue length does an incoming req see
system.mem_ctrl.wrQLenPdf::17                     411                       # What write queue length does an incoming req see
system.mem_ctrl.wrQLenPdf::18                     411                       # What write queue length does an incoming req see
system.mem_ctrl.wrQLenPdf::19                     410                       # What write queue length does an incoming req see
system.mem_ctrl.wrQLenPdf::20                     410                       # What write queue length does an incoming req see
system.mem_ctrl.wrQLenPdf::21                     410                       # What write queue length does an incoming req see
system.mem_ctrl.wrQLenPdf::22                     410                       # What write queue length does an incoming req see
system.mem_ctrl.wrQLenPdf::23                     410                       # What write queue length does an incoming req see
system.mem_ctrl.wrQLenPdf::24                     410                       # What write queue length does an incoming req see
system.mem_ctrl.wrQLenPdf::25                     410                       # What write queue length does an incoming req see
system.mem_ctrl.wrQLenPdf::26                     410                       # What write queue length does an incoming req see
system.mem_ctrl.wrQLenPdf::27                     410                       # What write queue length does an incoming req see
system.mem_ctrl.wrQLenPdf::28                     410                       # What write queue length does an incoming req see
system.mem_ctrl.wrQLenPdf::29                     410                       # What write queue length does an incoming req see
system.mem_ctrl.wrQLenPdf::30                     410                       # What write queue length does an incoming req see
system.mem_ctrl.wrQLenPdf::31                     410                       # What write queue length does an incoming req see
system.mem_ctrl.wrQLenPdf::32                     410                       # What write queue length does an incoming req see
system.mem_ctrl.wrQLenPdf::33                       0                       # What write queue length does an incoming req see
system.mem_ctrl.wrQLenPdf::34                       0                       # What write queue length does an incoming req see
system.mem_ctrl.wrQLenPdf::35                       0                       # What write queue length does an incoming req see
system.mem_ctrl.wrQLenPdf::36                       0                       # What write queue length does an incoming req see
system.mem_ctrl.wrQLenPdf::37                       0                       # What write queue length does an incoming req see
system.mem_ctrl.wrQLenPdf::38                       0                       # What write queue length does an incoming req see
system.mem_ctrl.wrQLenPdf::39                       0                       # What write queue length does an incoming req see
system.mem_ctrl.wrQLenPdf::40                       0                       # What write queue length does an incoming req see
system.mem_ctrl.wrQLenPdf::41                       0                       # What write queue length does an incoming req see
system.mem_ctrl.wrQLenPdf::42                       0                       # What write queue length does an incoming req see
system.mem_ctrl.wrQLenPdf::43                       0                       # What write queue length does an incoming req see
system.mem_ctrl.wrQLenPdf::44                       0                       # What write queue length does an incoming req see
system.mem_ctrl.wrQLenPdf::45                       0                       # What write queue length does an incoming req see
system.mem_ctrl.wrQLenPdf::46                       0                       # What write queue length does an incoming req see
system.mem_ctrl.wrQLenPdf::47                       0                       # What write queue length does an incoming req see
system.mem_ctrl.wrQLenPdf::48                       0                       # What write queue length does an incoming req see
system.mem_ctrl.wrQLenPdf::49                       0                       # What write queue length does an incoming req see
system.mem_ctrl.wrQLenPdf::50                       0                       # What write queue length does an incoming req see
system.mem_ctrl.wrQLenPdf::51                       0                       # What write queue length does an incoming req see
system.mem_ctrl.wrQLenPdf::52                       0                       # What write queue length does an incoming req see
system.mem_ctrl.wrQLenPdf::53                       0                       # What write queue length does an incoming req see
system.mem_ctrl.wrQLenPdf::54                       0                       # What write queue length does an incoming req see
system.mem_ctrl.wrQLenPdf::55                       0                       # What write queue length does an incoming req see
system.mem_ctrl.wrQLenPdf::56                       0                       # What write queue length does an incoming req see
system.mem_ctrl.wrQLenPdf::57                       0                       # What write queue length does an incoming req see
system.mem_ctrl.wrQLenPdf::58                       0                       # What write queue length does an incoming req see
system.mem_ctrl.wrQLenPdf::59                       0                       # What write queue length does an incoming req see
system.mem_ctrl.wrQLenPdf::60                       0                       # What write queue length does an incoming req see
system.mem_ctrl.wrQLenPdf::61                       0                       # What write queue length does an incoming req see
system.mem_ctrl.wrQLenPdf::62                       0                       # What write queue length does an incoming req see
system.mem_ctrl.wrQLenPdf::63                       0                       # What write queue length does an incoming req see
system.mem_ctrl.writeBursts                   9656196                       # Number of DRAM write bursts, including those merged in the write queue
system.mem_ctrl.writePktSize::0                705394                       # Write request sizes (log2)
system.mem_ctrl.writePktSize::1                 32892                       # Write request sizes (log2)
system.mem_ctrl.writePktSize::2               1047011                       # Write request sizes (log2)
system.mem_ctrl.writePktSize::3               7870899                       # Write request sizes (log2)
system.mem_ctrl.writePktSize::4                     0                       # Write request sizes (log2)
system.mem_ctrl.writePktSize::5                     0                       # Write request sizes (log2)
system.mem_ctrl.writePktSize::6                     0                       # Write request sizes (log2)
system.mem_ctrl.writeReqs                     9656196                       # Number of write requests accepted
system.mem_ctrl.writeRowHitRate                 86.13                       # Row buffer hit rate for writes
system.mem_ctrl.writeRowHits                     5670                       # Number of row buffer hits during writes
system.mem_ctrl_0.actBackEnergy          608495124420                       # Energy for active background per rank (pJ)
system.mem_ctrl_0.actEnergy               37609692960                       # Energy for activate commands per rank (pJ)
system.mem_ctrl_0.actPowerDownEnergy     1676243532960                       # Energy for active power-down per rank (pJ)
system.mem_ctrl_0.averagePower             603.296936                       # Core power per rank (mW)
system.mem_ctrl_0.memoryStateTime::IDLE    3535944000                       # Time in different power states
system.mem_ctrl_0.memoryStateTime::REF   171516540000                       # Time in different power states
system.mem_ctrl_0.memoryStateTime::SREF     224733250                       # Time in different power states
system.mem_ctrl_0.memoryStateTime::PRE_PDN 102908891250                       # Time in different power states
system.mem_ctrl_0.memoryStateTime::ACT   1182687333750                       # Time in different power states
system.mem_ctrl_0.memoryStateTime::ACT_PDN 3675783090000                       # Time in different power states
system.mem_ctrl_0.preBackEnergy            8920037760                       # Energy for precharge background per rank (pJ)
system.mem_ctrl_0.preEnergy               19990022085                       # Energy for precharge commands per rank (pJ)
system.mem_ctrl_0.prePowerDownEnergy      39478951680                       # Energy for precharge power-down per rank (pJ)
system.mem_ctrl_0.readEnergy             302635190340                       # Energy for read commands per rank (pJ)
system.mem_ctrl_0.refreshEnergy          405465100560.000061                       # Energy for refresh commands per rank (pJ)
system.mem_ctrl_0.selfRefreshEnergy          65766240                       # Energy for self refresh per rank (pJ)
system.mem_ctrl_0.totalEnergy            3098929148835                       # Total energy per rank (pJ)
system.mem_ctrl_0.totalIdleTime          3778916692000                       # Total Idle time Per DRAM Rank
system.mem_ctrl_0.writeEnergy                25290900                       # Energy for write commands per rank (pJ)
system.mem_ctrl_1.actBackEnergy          768854300010                       # Energy for active background per rank (pJ)
system.mem_ctrl_1.actEnergy               53527701780                       # Energy for activate commands per rank (pJ)
system.mem_ctrl_1.actPowerDownEnergy     1442740595070                       # Energy for active power-down per rank (pJ)
system.mem_ctrl_1.averagePower             621.886112                       # Core power per rank (mW)
system.mem_ctrl_1.memoryStateTime::IDLE    7770973250                       # Time in different power states
system.mem_ctrl_1.memoryStateTime::REF   170482000000                       # Time in different power states
system.mem_ctrl_1.memoryStateTime::SREF   30099448000                       # Time in different power states
system.mem_ctrl_1.memoryStateTime::PRE_PDN 220567811500                       # Time in different power states
system.mem_ctrl_1.memoryStateTime::ACT   1543678476750                       # Time in different power states
system.mem_ctrl_1.memoryStateTime::ACT_PDN 3164057822750                       # Time in different power states
system.mem_ctrl_1.preBackEnergy           13805678400                       # Energy for precharge background per rank (pJ)
system.mem_ctrl_1.preEnergy               28450640625                       # Energy for precharge commands per rank (pJ)
system.mem_ctrl_1.prePowerDownEnergy      84696213120                       # Energy for precharge power-down per rank (pJ)
system.mem_ctrl_1.readEnergy             389827470900                       # Energy for read commands per rank (pJ)
system.mem_ctrl_1.refreshEnergy          403019448000.000061                       # Energy for refresh commands per rank (pJ)
system.mem_ctrl_1.selfRefreshEnergy        9460442880                       # Energy for self refresh per rank (pJ)
system.mem_ctrl_1.totalEnergy            3194415358545                       # Total energy per rank (pJ)
system.mem_ctrl_1.totalIdleTime          3414724275250                       # Total Idle time Per DRAM Rank
system.mem_ctrl_1.writeEnergy                 8973180                       # Energy for write commands per rank (pJ)
system.membus.pkt_count_system.cpu.icache_port::system.mem_ctrl.port    159762998                       # Packet count per connected master and slave (bytes)
system.membus.pkt_count_system.cpu.icache_port::total    159762998                       # Packet count per connected master and slave (bytes)
system.membus.pkt_count_system.cpu.dcache_port::system.mem_ctrl.port     57777186                       # Packet count per connected master and slave (bytes)
system.membus.pkt_count_system.cpu.dcache_port::total     57777186                       # Packet count per connected master and slave (bytes)
system.membus.pkt_count::total              217540184                       # Packet count per connected master and slave (bytes)
system.membus.pkt_size_system.cpu.icache_port::system.mem_ctrl.port    639051992                       # Cumulative packet size per connected master and slave (bytes)
system.membus.pkt_size_system.cpu.icache_port::total    639051992                       # Cumulative packet size per connected master and slave (bytes)
system.membus.pkt_size_system.cpu.dcache_port::system.mem_ctrl.port    195688159                       # Cumulative packet size per connected master and slave (bytes)
system.membus.pkt_size_system.cpu.dcache_port::total    195688159                       # Cumulative packet size per connected master and slave (bytes)
system.membus.pkt_size::total               834740151                       # Cumulative packet size per connected master and slave (bytes)
system.membus.pwrStateResidencyTicks::UNDEFINED 5136656532250                       # Cumulative time (in ticks) in various power states
system.membus.reqLayer2.occupancy         29606572000                       # Layer occupancy (ticks)
system.membus.reqLayer2.utilization               0.6                       # Layer utilization (%)
system.membus.respLayer0.occupancy        39940749500                       # Layer occupancy (ticks)
system.membus.respLayer0.utilization              0.8                       # Layer utilization (%)
system.membus.respLayer1.occupancy        12030247500                       # Layer occupancy (ticks)
system.membus.respLayer1.utilization              0.2                       # Layer utilization (%)
system.membus.snoopTraffic                          0                       # Total snoop traffic (bytes)
system.membus.snoop_fanout::samples         108770092                       # Request fanout histogram
system.membus.snoop_fanout::mean                    0                       # Request fanout histogram
system.membus.snoop_fanout::stdev                   0                       # Request fanout histogram
system.membus.snoop_fanout::underflows              0      0.00%      0.00% # Request fanout histogram
system.membus.snoop_fanout::0               108770092    100.00%    100.00% # Request fanout histogram
system.membus.snoop_fanout::1                       0      0.00%    100.00% # Request fanout histogram
system.membus.snoop_fanout::overflows               0      0.00%    100.00% # Request fanout histogram
system.membus.snoop_fanout::min_value               0                       # Request fanout histogram
system.membus.snoop_fanout::max_value               0                       # Request fanout histogram
system.membus.snoop_fanout::total           108770092                       # Request fanout histogram
system.membus.snoop_filter.hit_multi_requests            0                       # Number of requests hitting in the snoop filter with multiple (>1) holders of the requested data.
system.membus.snoop_filter.hit_multi_snoops            0                       # Number of snoops hitting in the snoop filter with multiple (>1) holders of the requested data.
system.membus.snoop_filter.hit_single_requests            0                       # Number of requests hitting in the snoop filter with a single holder of the requested data.
system.membus.snoop_filter.hit_single_snoops            0                       # Number of snoops hitting in the snoop filter with a single holder of the requested data.
system.membus.snoop_filter.tot_requests             0                       # Total number of requests made to the snoop filter.
system.membus.snoop_filter.tot_snoops               0                       # Total number of snoops made to the snoop filter.
system.membus.snoops                                0                       # Total snoops (count)
system.membus.trans_dist::ReadReq            99113896                       # Transaction distribution
system.membus.trans_dist::ReadResp           99113896                       # Transaction distribution
system.membus.trans_dist::WriteReq            9656196                       # Transaction distribution
system.membus.trans_dist::WriteResp           9656196                       # Transaction distribution

---------- End Simulation Statistics   ----------
