
---------- Begin Simulation Statistics ----------
final_tick                               5752779612250                       # Number of ticks from beginning of simulation (restored from checkpoints and never reset)
host_inst_rate                                 183038                       # Simulator instruction rate (inst/s)
host_mem_usage                                 709448                       # Number of bytes of host memory used
host_op_rate                                   376401                       # Simulator op (including micro ops) rate (op/s)
host_seconds                                   340.05                       # Real time elapsed on the host
host_tick_rate                            16917551434                       # Simulator tick rate (ticks/s)
sim_freq                                 1000000000000                       # Frequency of simulated ticks
sim_insts                                    62241523                       # Number of instructions simulated
sim_ops                                     127994556                       # Number of ops (including micro ops) simulated
sim_seconds                                  5.752780                       # Number of seconds simulated
sim_ticks                                5752779612250                       # Number of ticks simulated
system.clk_domain.clock                           250                       # Clock period in ticks
system.clk_domain.voltage_domain.voltage            1                       # Voltage in Volts
system.cpu.Branches                          14640572                       # Number of branches fetched
system.cpu.apic_clk_domain.clock                 4000                       # Clock period in ticks
system.cpu.committedInsts                    62241523                       # Number of instructions committed
system.cpu.committedOps                     127994556                       # Number of ops (including micro ops) committed
system.cpu.dtb.rdAccesses                    19232397                       # TLB accesses on read requests
system.cpu.dtb.rdMisses                           850                       # TLB misses on read requests
system.cpu.dtb.walker.pwrStateResidencyTicks::UNDEFINED 5752779612250                       # Cumulative time (in ticks) in various power states
system.cpu.dtb.wrAccesses                     9656196                       # TLB accesses on write requests
system.cpu.dtb.wrMisses                            56                       # TLB misses on write requests
system.cpu.idle_fraction                     0.000000                       # Percentage of idle cycles
system.cpu.interrupts.pwrStateResidencyTicks::UNDEFINED 5752779612250                       # Cumulative time (in ticks) in various power states
system.cpu.itb.rdAccesses                           0                       # TLB accesses on read requests
system.cpu.itb.rdMisses                             0                       # TLB misses on read requests
system.cpu.itb.walker.pwrStateResidencyTicks::UNDEFINED 5752779612250                       # Cumulative time (in ticks) in various power states
system.cpu.itb.wrAccesses                    79881499                       # TLB accesses on write requests
system.cpu.itb.wrMisses                           232                       # TLB misses on write requests
system.cpu.not_idle_fraction                 1.000000                       # Percentage of non-idle cycles
system.cpu.numCycles                      23011118449                       # number of cpu cycles simulated
system.cpu.numWorkItemsCompleted                    0                       # number of work items this cpu completed
system.cpu.numWorkItemsStarted                      0                       # number of work items this cpu started
system.cpu.num_busy_cycles               23011118448.995998                       # Number of busy cycles
system.cpu.num_cc_register_reads             65943150                       # number of times the CC registers were read
system.cpu.num_cc_register_writes            34301837                       # number of times the CC registers were written
system.cpu.num_conditional_control_insts      9716214                       # number of instructions that are conditional controls
system.cpu.num_fp_alu_accesses                1487384                       # Number of float alu accesses
system.cpu.num_fp_insts                       1487384                       # number of float instructions
system.cpu.num_fp_register_reads              2433411                       # number of times the floating registers were read
system.cpu.num_fp_register_writes             1217323                       # number of times the floating registers were written
system.cpu.num_func_calls                     3003988                       # number of times a function call or return occured
system.cpu.num_idle_cycles                   0.004001                       # Number of idle cycles
system.cpu.num_int_alu_accesses             126735013                       # Number of integer alu accesses
system.cpu.num_int_insts                    126735013                       # number of integer instructions
system.cpu.num_int_register_reads           256425037                       # number of times the integer registers were read
system.cpu.num_int_register_writes          102477585                       # number of times the integer registers were written
system.cpu.num_load_insts                    19166829                       # Number of load instructions
system.cpu.num_mem_refs                      28823020                       # number of memory refs
system.cpu.num_store_insts                    9656191                       # Number of store instructions
system.cpu.num_vec_alu_accesses                     0                       # Number of vector alu accesses
system.cpu.num_vec_insts                            0                       # number of vector instructions
system.cpu.num_vec_register_reads                   0                       # number of times the vector registers were read
system.cpu.num_vec_register_writes                  0                       # number of times the vector registers were written
system.cpu.op_class::No_OpClass                314018      0.25%      0.25% # Class of executed instruction
system.cpu.op_class::IntAlu                  97429982     76.12%     76.37% # Class of executed instruction
system.cpu.op_class::IntMult                   180302      0.14%     76.51% # Class of executed instruction
system.cpu.op_class::IntDiv                     37162      0.03%     76.54% # Class of executed instruction
system.cpu.op_class::FloatAdd                      82      0.00%     76.54% # Class of executed instruction
system.cpu.op_class::FloatCmp                       0      0.00%     76.54% # Class of executed instruction
system.cpu.op_class::FloatCvt                       0      0.00%     76.54% # Class of executed instruction
system.cpu.op_class::FloatMult                      0      0.00%     76.54% # Class of executed instruction
system.cpu.op_class::FloatMultAcc                   0      0.00%     76.54% # Class of executed instruction
system.cpu.op_class::FloatDiv                       0      0.00%     76.54% # Class of executed instruction
system.cpu.op_class::FloatMisc                      0      0.00%     76.54% # Class of executed instruction
system.cpu.op_class::FloatSqrt                      0      0.00%     76.54% # Class of executed instruction
system.cpu.op_class::SimdAdd                     5542      0.00%     76.54% # Class of executed instruction
system.cpu.op_class::SimdAddAcc                     0      0.00%     76.54% # Class of executed instruction
system.cpu.op_class::SimdAlu                   661836      0.52%     77.06% # Class of executed instruction
system.cpu.op_class::SimdCmp                        0      0.00%     77.06% # Class of executed instruction
system.cpu.op_class::SimdCvt                   273628      0.21%     77.27% # Class of executed instruction
system.cpu.op_class::SimdMisc                  268308      0.21%     77.48% # Class of executed instruction
system.cpu.op_class::SimdMult                       0      0.00%     77.48% # Class of executed instruction
system.cpu.op_class::SimdMultAcc                    0      0.00%     77.48% # Class of executed instruction
system.cpu.op_class::SimdShift                    676      0.00%     77.48% # Class of executed instruction
system.cpu.op_class::SimdShiftAcc                   0      0.00%     77.48% # Class of executed instruction
system.cpu.op_class::SimdDiv                        0      0.00%     77.48% # Class of executed instruction
system.cpu.op_class::SimdSqrt                       0      0.00%     77.48% # Class of executed instruction
system.cpu.op_class::SimdFloatAdd                   0      0.00%     77.48% # Class of executed instruction
system.cpu.op_class::SimdFloatAlu                   0      0.00%     77.48% # Class of executed instruction
system.cpu.op_class::SimdFloatCmp                   0      0.00%     77.48% # Class of executed instruction
system.cpu.op_class::SimdFloatCvt                   0      0.00%     77.48% # Class of executed instruction
system.cpu.op_class::SimdFloatDiv                   0      0.00%     77.48% # Class of executed instruction
system.cpu.op_class::SimdFloatMisc                  0      0.00%     77.48% # Class of executed instruction
system.cpu.op_class::SimdFloatMult                  0      0.00%     77.48% # Class of executed instruction
system.cpu.op_class::SimdFloatMultAcc               0      0.00%     77.48% # Class of executed instruction
system.cpu.op_class::SimdFloatSqrt                  0      0.00%     77.48% # Class of executed instruction
system.cpu.op_class::SimdReduceAdd                  0      0.00%     77.48% # Class of executed instruction
system.cpu.op_class::SimdReduceAlu                  0      0.00%     77.48% # Class of executed instruction
system.cpu.op_class::SimdReduceCmp                  0      0.00%     77.48% # Class of executed instruction
system.cpu.op_class::SimdFloatReduceAdd             0      0.00%     77.48% # Class of executed instruction
system.cpu.op_class::SimdFloatReduceCmp             0      0.00%     77.48% # Class of executed instruction
system.cpu.op_class::SimdAes                        0      0.00%     77.48% # Class of executed instruction
system.cpu.op_class::SimdAesMix                     0      0.00%     77.48% # Class of executed instruction
system.cpu.op_class::SimdSha1Hash                   0      0.00%     77.48% # Class of executed instruction
system.cpu.op_class::SimdSha1Hash2                  0      0.00%     77.48% # Class of executed instruction
system.cpu.op_class::SimdSha256Hash                 0      0.00%     77.48% # Class of executed instruction
system.cpu.op_class::SimdSha256Hash2                0      0.00%     77.48% # Class of executed instruction
system.cpu.op_class::SimdShaSigma2                  0      0.00%     77.48% # Class of executed instruction
system.cpu.op_class::SimdShaSigma3                  0      0.00%     77.48% # Class of executed instruction
system.cpu.op_class::SimdPredAlu                    0      0.00%     77.48% # Class of executed instruction
system.cpu.op_class::MemRead                 18891696     14.76%     92.24% # Class of executed instruction
system.cpu.op_class::MemWrite                 9654186      7.54%     99.78% # Class of executed instruction
system.cpu.op_class::FloatMemRead              275133      0.21%    100.00% # Class of executed instruction
system.cpu.op_class::FloatMemWrite               2005      0.00%    100.00% # Class of executed instruction
system.cpu.op_class::IprAccess                      0      0.00%    100.00% # Class of executed instruction
system.cpu.op_class::InstPrefetch                   0      0.00%    100.00% # Class of executed instruction
system.cpu.op_class::total                  127994556                       # Class of executed instruction
system.cpu.pwrStateResidencyTicks::ON    5752779612250                       # Cumulative time (in ticks) in various power states
system.cpu.workload.numSyscalls                 32826                       # Number of system calls
system.mem_ctrl.avgBusLat                     7500.00                       # Average bus latency per DRAM burst
system.mem_ctrl.avgGap                       52889.35                       # Average gap between requests
system.mem_ctrl.avgMemAccLat                 35771.26                       # Average memory access latency per DRAM burst
system.mem_ctrl.avgPriority_.cpu.inst::samples  79881499.00                       # Average QoS priority value for accepted requests
system.mem_ctrl.avgPriority_.cpu.data::samples  16153839.00                       # Average QoS priority value for accepted requests
system.mem_ctrl.avgQLat                      13271.26                       # Average queueing delay per DRAM burst
system.mem_ctrl.avgRdBW                        534.09                       # Average DRAM read bandwidth in MiByte/s
system.mem_ctrl.avgRdBWSys                     133.29                       # Average system read bandwidth in MiByte/s
system.mem_ctrl.avgRdQLen                        1.00                       # Average read queue length when enqueuing
system.mem_ctrl.avgWrBW                          0.11                       # Average achieved write bandwidth in MiByte/s
system.mem_ctrl.avgWrBWSys                      11.81                       # Average system write bandwidth in MiByte/s
system.mem_ctrl.avgWrQLen                       30.13                       # Average write queue length when enqueuing
system.mem_ctrl.busUtil                         12.52                       # Data bus utilization in percentage
system.mem_ctrl.busUtilRead                     12.52                       # Data bus utilization in percentage for reads
system.mem_ctrl.busUtilWrite                     0.00                       # Data bus utilization in percentage for writes
system.mem_ctrl.bw_inst_read::.cpu.inst     111085777                       # Instruction read bandwidth from this memory (bytes/s)
system.mem_ctrl.bw_inst_read::total         111085777                       # Instruction read bandwidth from this memory (bytes/s)
system.mem_ctrl.bw_read::.cpu.inst          111085777                       # Total read bandwidth from this memory (bytes/s)
system.mem_ctrl.bw_read::.cpu.data           22208700                       # Total read bandwidth from this memory (bytes/s)
system.mem_ctrl.bw_read::total              133294476                       # Total read bandwidth from this memory (bytes/s)
system.mem_ctrl.bw_total::.cpu.inst         111085777                       # Total bandwidth to/from this memory (bytes/s)
system.mem_ctrl.bw_total::.cpu.data          34016279                       # Total bandwidth to/from this memory (bytes/s)
system.mem_ctrl.bw_total::total             145102056                       # Total bandwidth to/from this memory (bytes/s)
system.mem_ctrl.bw_write::.cpu.data          11807580                       # Write bandwidth from this memory (bytes/s)
system.mem_ctrl.bw_write::total              11807580                       # Write bandwidth from this memory (bytes/s)
system.mem_ctrl.bytesPerActivate::samples     17926743                       # Bytes accessed per row activation
system.mem_ctrl.bytesPerActivate::mean     171.427098                       # Bytes accessed per row activation
system.mem_ctrl.bytesPerActivate::gmean     98.617157                       # Bytes accessed per row activation
system.mem_ctrl.bytesPerActivate::stdev    173.524274                       # Bytes accessed per row activation
system.mem_ctrl.bytesPerActivate::0-63        6866761     38.30%     38.30% # Bytes accessed per row activation
system.mem_ctrl.bytesPerActivate::64-127      3220216     17.96%     56.27% # Bytes accessed per row activation
system.mem_ctrl.bytesPerActivate::128-191      1654227      9.23%     65.50% # Bytes accessed per row activation
system.mem_ctrl.bytesPerActivate::192-255      1354714      7.56%     73.05% # Bytes accessed per row activation
system.mem_ctrl.bytesPerActivate::256-319       808103      4.51%     77.56% # Bytes accessed per row activation
system.mem_ctrl.bytesPerActivate::320-383       578620      3.23%     80.79% # Bytes accessed per row activation
system.mem_ctrl.bytesPerActivate::384-447       665110      3.71%     84.50% # Bytes accessed per row activation
system.mem_ctrl.bytesPerActivate::448-511       323342      1.80%     86.30% # Bytes accessed per row activation
system.mem_ctrl.bytesPerActivate::512-575      2455650     13.70%    100.00% # Bytes accessed per row activation
system.mem_ctrl.bytesPerActivate::total      17926743                       # Bytes accessed per row activation
system.mem_ctrl.bytesReadDRAM              3072525344                       # Total number of bytes read from DRAM
system.mem_ctrl.bytesReadSys                766813746                       # Total read bytes from the system interface side
system.mem_ctrl.bytesReadWrQ                 99160320                       # Total number of bytes read from write queue
system.mem_ctrl.bytesWritten                   604672                       # Total number of bytes written to DRAM
system.mem_ctrl.bytesWrittenSys              67926405                       # Total written bytes from the system interface side
system.mem_ctrl.bytes_inst_read::.cpu.inst    639051992                       # Number of instructions bytes read from this memory
system.mem_ctrl.bytes_inst_read::total      639051992                       # Number of instructions bytes read from this memory
system.mem_ctrl.bytes_read::.cpu.inst       639051992                       # Number of bytes read from this memory
system.mem_ctrl.bytes_read::.cpu.data       127761754                       # Number of bytes read from this memory
system.mem_ctrl.bytes_read::total           766813746                       # Number of bytes read from this memory
system.mem_ctrl.bytes_written::.cpu.data     67926405                       # Number of bytes written to this memory
system.mem_ctrl.bytes_written::total         67926405                       # Number of bytes written to this memory
system.mem_ctrl.masterReadAccesses::.cpu.inst     79881499                       # Per-master read serviced memory accesses
system.mem_ctrl.masterReadAccesses::.cpu.data     19233678                       # Per-master read serviced memory accesses
system.mem_ctrl.masterReadAvgLat::.cpu.inst     34084.65                       # Per-master read average memory access latency
system.mem_ctrl.masterReadAvgLat::.cpu.data     37012.97                       # Per-master read average memory access latency
system.mem_ctrl.masterReadBytes::.cpu.inst    639051992                       # Per-master bytes read from memory
system.mem_ctrl.masterReadBytes::.cpu.data    105342149                       # Per-master bytes read from memory
system.mem_ctrl.masterReadRate::.cpu.inst 111085776.802434638143                       # Per-master bytes read from memory rate (Bytes/sec)
system.mem_ctrl.masterReadRate::.cpu.data 18311521.751273740083                       # Per-master bytes read from memory rate (Bytes/sec)
system.mem_ctrl.masterReadTotalLat::.cpu.inst 2722732598934                       # Per-master read total memory access latency
system.mem_ctrl.masterReadTotalLat::.cpu.data 711895560186                       # Per-master read total memory access latency
system.mem_ctrl.masterWriteAccesses::.cpu.data      9656196                       # Per-master write serviced memory accesses
system.mem_ctrl.masterWriteAvgLat::.cpu.data  17942814.88                       # Per-master write average memory access latency
system.mem_ctrl.masterWriteBytes::.cpu.data       146471                       # Per-master bytes write to memory
system.mem_ctrl.masterWriteRate::.cpu.data 25460.909312100859                       # Per-master bytes write to memory rate (Bytes/sec)
system.mem_ctrl.masterWriteTotalLat::.cpu.data 173259337318910                       # Per-master write total memory access latency
system.mem_ctrl.mergedWrBursts                9637275                       # Number of DRAM write bursts merged with an existing one
system.mem_ctrl.neitherReadNorWriteReqs             0                       # Number of requests that are neither read nor write
system.mem_ctrl.numRdRetry                          0                       # Number of times read queue was full causing retry
system.mem_ctrl.numReadWriteTurnArounds          1180                       # Number of turnarounds from READ to WRITE
system.mem_ctrl.numStayReadState            203167196                       # Number of times bus staying in READ state
system.mem_ctrl.numStayWriteState               17770                       # Number of times bus staying in WRITE state
system.mem_ctrl.numWrRetry                          0                       # Number of times write queue was full causing retry
system.mem_ctrl.numWriteReadTurnArounds          1180                       # Number of turnarounds from WRITE to READ
system.mem_ctrl.num_reads::.cpu.inst         79881499                       # Number of read requests responded to by this memory
system.mem_ctrl.num_reads::.cpu.data         19232397                       # Number of read requests responded to by this memory
system.mem_ctrl.num_reads::total             99113896                       # Number of read requests responded to by this memory
system.mem_ctrl.num_writes::.cpu.data         9656196                       # Number of write requests responded to by this memory
system.mem_ctrl.num_writes::total             9656196                       # Number of write requests responded to by this memory
system.mem_ctrl.pageHitRate                     81.33                       # Row buffer hit rate, read and write combined
system.mem_ctrl.peakBW                        4266.00                       # Theoretical peak bandwidth in MiByte/s
system.mem_ctrl.perBankRdBursts::0           25696061                       # Per bank write bursts
system.mem_ctrl.perBankRdBursts::1            8290931                       # Per bank write bursts
system.mem_ctrl.perBankRdBursts::2           11630646                       # Per bank write bursts
system.mem_ctrl.perBankRdBursts::3            2655070                       # Per bank write bursts
system.mem_ctrl.perBankRdBursts::4            1786941                       # Per bank write bursts
system.mem_ctrl.perBankRdBursts::5           23729364                       # Per bank write bursts
system.mem_ctrl.perBankRdBursts::6            8084258                       # Per bank write bursts
system.mem_ctrl.perBankRdBursts::7           14143146                       # Per bank write bursts
system.mem_ctrl.perBankWrBursts::0                993                       # Per bank write bursts
system.mem_ctrl.perBankWrBursts::1               1047                       # Per bank write bursts
system.mem_ctrl.perBankWrBursts::2              12294                       # Per bank write bursts
system.mem_ctrl.perBankWrBursts::3               1350                       # Per bank write bursts
system.mem_ctrl.perBankWrBursts::4                559                       # Per bank write bursts
system.mem_ctrl.perBankWrBursts::5                730                       # Per bank write bursts
system.mem_ctrl.perBankWrBursts::6               1211                       # Per bank write bursts
system.mem_ctrl.perBankWrBursts::7                712                       # Per bank write bursts
system.mem_ctrl.priorityMaxLatency       0.391096157500                       # per QoS priority maximum request to response latency (s)
system.mem_ctrl.priorityMinLatency       0.000000022500                       # per QoS priority minimum request to response latency (s)
system.mem_ctrl.pwrStateResidencyTicks::UNDEFINED 5752779612250                       # Cumulative time (in ticks) in various power states
system.mem_ctrl.rdPerTurnAround::samples         1180                       # Reads before turning the bus around for writes
system.mem_ctrl.rdPerTurnAround::mean    81369.679661                       # Reads before turning the bus around for writes
system.mem_ctrl.rdPerTurnAround::stdev   283800.506943                       # Reads before turning the bus around for writes
system.mem_ctrl.rdPerTurnAround::0-65535         1061     89.92%     89.92% # Reads before turning the bus around for writes
system.mem_ctrl.rdPerTurnAround::65536-131071           21      1.78%     91.69% # Reads before turning the bus around for writes
system.mem_ctrl.rdPerTurnAround::327680-393215           34      2.88%     94.58% # Reads before turning the bus around for writes
system.mem_ctrl.rdPerTurnAround::1.04858e+06-1.11411e+06           34      2.88%     97.46% # Reads before turning the bus around for writes
system.mem_ctrl.rdPerTurnAround::1.24518e+06-1.31072e+06            7      0.59%     98.05% # Reads before turning the bus around for writes
system.mem_ctrl.rdPerTurnAround::1.31072e+06-1.37626e+06            6      0.51%     98.56% # Reads before turning the bus around for writes
system.mem_ctrl.rdPerTurnAround::1.37626e+06-1.44179e+06            2      0.17%     98.73% # Reads before turning the bus around for writes
system.mem_ctrl.rdPerTurnAround::1.44179e+06-1.50733e+06           15      1.27%    100.00% # Reads before turning the bus around for writes
system.mem_ctrl.rdPerTurnAround::total           1180                       # Reads before turning the bus around for writes
system.mem_ctrl.rdQLenPdf::0                 95949571                       # What read queue length does an incoming req see
system.mem_ctrl.rdQLenPdf::1                    66846                       # What read queue length does an incoming req see
system.mem_ctrl.rdQLenPdf::2                        0                       # What read queue length does an incoming req see
system.mem_ctrl.rdQLenPdf::3                        0                       # What read queue length does an incoming req see
system.mem_ctrl.rdQLenPdf::4                        0                       # What read queue length does an incoming req see
system.mem_ctrl.rdQLenPdf::5                        0                       # What read queue length does an incoming req see
system.mem_ctrl.rdQLenPdf::6                        0                       # What read queue length does an incoming req see
system.mem_ctrl.rdQLenPdf::7                        0                       # What read queue length does an incoming req see
system.mem_ctrl.rdQLenPdf::8                        0                       # What read queue length does an incoming req see
system.mem_ctrl.rdQLenPdf::9                        0                       # What read queue length does an incoming req see
system.mem_ctrl.rdQLenPdf::10                       0                       # What read queue length does an incoming req see
system.mem_ctrl.rdQLenPdf::11                       0                       # What read queue length does an incoming req see
system.mem_ctrl.rdQLenPdf::12                       0                       # What read queue length does an incoming req see
system.mem_ctrl.rdQLenPdf::13                       0                       # What read queue length does an incoming req see
system.mem_ctrl.rdQLenPdf::14                       0                       # What read queue length does an incoming req see
system.mem_ctrl.rdQLenPdf::15                       0                       # What read queue length does an incoming req see
system.mem_ctrl.rdQLenPdf::16                       0                       # What read queue length does an incoming req see
system.mem_ctrl.rdQLenPdf::17                       0                       # What read queue length does an incoming req see
system.mem_ctrl.rdQLenPdf::18                       0                       # What read queue length does an incoming req see
system.mem_ctrl.rdQLenPdf::19                       0                       # What read queue length does an incoming req see
system.mem_ctrl.rdQLenPdf::20                       0                       # What read queue length does an incoming req see
system.mem_ctrl.rdQLenPdf::21                       0                       # What read queue length does an incoming req see
system.mem_ctrl.rdQLenPdf::22                       0                       # What read queue length does an incoming req see
system.mem_ctrl.rdQLenPdf::23                       0                       # What read queue length does an incoming req see
system.mem_ctrl.rdQLenPdf::24                       0                       # What read queue length does an incoming req see
system.mem_ctrl.rdQLenPdf::25                       0                       # What read queue length does an incoming req see
system.mem_ctrl.rdQLenPdf::26                       0                       # What read queue length does an incoming req see
system.mem_ctrl.rdQLenPdf::27                       0                       # What read queue length does an incoming req see
system.mem_ctrl.rdQLenPdf::28                       0                       # What read queue length does an incoming req see
system.mem_ctrl.rdQLenPdf::29                       0                       # What read queue length does an incoming req see
system.mem_ctrl.rdQLenPdf::30                       0                       # What read queue length does an incoming req see
system.mem_ctrl.rdQLenPdf::31                       0                       # What read queue length does an incoming req see
system.mem_ctrl.readBursts                   99115177                       # Number of DRAM read bursts, including those serviced by the write queue
system.mem_ctrl.readPktSize::0                1967164                       # Read request sizes (log2)
system.mem_ctrl.readPktSize::1                 141372                       # Read request sizes (log2)
system.mem_ctrl.readPktSize::2                2839482                       # Read request sizes (log2)
system.mem_ctrl.readPktSize::3               94167159                       # Read request sizes (log2)
system.mem_ctrl.readPktSize::4                      0                       # Read request sizes (log2)
system.mem_ctrl.readPktSize::5                      0                       # Read request sizes (log2)
system.mem_ctrl.readReqs                     99113896                       # Number of read requests accepted
system.mem_ctrl.readRowHitRate                  81.33                       # Row buffer hit rate for reads
system.mem_ctrl.readRowHits                  78093006                       # Number of row buffer hits during reads
system.mem_ctrl.servicedByWrQ                 3098760                       # Number of DRAM read bursts serviced by the write queue
system.mem_ctrl.totBusLat                720123127500                       # Total ticks spent in databus transfers
system.mem_ctrl.totGap                   5752779484750                       # Total gap between requests
system.mem_ctrl.totMemAccLat             3434628159120                       # Total ticks spent from burst creation until serviced by the DRAM
system.mem_ctrl.totQLat                  1274258776620                       # Total ticks spent queuing
system.mem_ctrl.wrPerTurnAround::samples         1180                       # Writes before turning the bus around for reads
system.mem_ctrl.wrPerTurnAround::mean       16.013559                       # Writes before turning the bus around for reads
system.mem_ctrl.wrPerTurnAround::gmean      16.012234                       # Writes before turning the bus around for reads
system.mem_ctrl.wrPerTurnAround::stdev       0.221383                       # Writes before turning the bus around for reads
system.mem_ctrl.wrPerTurnAround::16              1175     99.58%     99.58% # Writes before turning the bus around for reads
system.mem_ctrl.wrPerTurnAround::17                 1      0.08%     99.66% # Writes before turning the bus around for reads
system.mem_ctrl.wrPerTurnAround::19                 1      0.08%     99.75% # Writes before turning the bus around for reads
system.mem_ctrl.wrPerTurnAround::20                 3      0.25%    100.00% # Writes before turning the bus around for reads
system.mem_ctrl.wrPerTurnAround::total           1180                       # Writes before turning the bus around for reads
system.mem_ctrl.wrQLenPdf::0                        1                       # What write queue length does an incoming req see
system.mem_ctrl.wrQLenPdf::1                        1                       # What write queue length does an incoming req see
system.mem_ctrl.wrQLenPdf::2                        1                       # What write queue length does an incoming req see
system.mem_ctrl.wrQLenPdf::3                        1                       # What write queue length does an incoming req see
system.mem_ctrl.wrQLenPdf::4                        1                       # What write queue length does an incoming req see
system.mem_ctrl.wrQLenPdf::5                        1                       # What write queue length does an incoming req see
system.mem_ctrl.wrQLenPdf::6                        1                       # What write queue length does an incoming req see
system.mem_ctrl.wrQLenPdf::7                        1                       # What write queue length does an incoming req see
system.mem_ctrl.wrQLenPdf::8                        1                       # What write queue length does an incoming req see
system.mem_ctrl.wrQLenPdf::9                        1                       # What write queue length does an incoming req see
system.mem_ctrl.wrQLenPdf::10                       1                       # What write queue length does an incoming req see
system.mem_ctrl.wrQLenPdf::11                       1                       # What write queue length does an incoming req see
system.mem_ctrl.wrQLenPdf::12                       1                       # What write queue length does an incoming req see
system.mem_ctrl.wrQLenPdf::13                       1                       # What write queue length does an incoming req see
system.mem_ctrl.wrQLenPdf::14                       1                       # What write queue length does an incoming req see
system.mem_ctrl.wrQLenPdf::15                       4                       # What write queue length does an incoming req see
system.mem_ctrl.wrQLenPdf::16                       7                       # What write queue length does an incoming req see
system.mem_ctrl.wrQLenPdf::17                    1178                       # What write queue length does an incoming req see
system.mem_ctrl.wrQLenPdf::18                    1179                       # What write queue length does an incoming req see
system.mem_ctrl.wrQLenPdf::19                    1181                       # What write queue length does an incoming req see
system.mem_ctrl.wrQLenPdf::20                    1181                       # What write queue length does an incoming req see
system.mem_ctrl.wrQLenPdf::21                    1182                       # What write queue length does an incoming req see
system.mem_ctrl.wrQLenPdf::22                    1183                       # What write queue length does an incoming req see
system.mem_ctrl.wrQLenPdf::23                    1182                       # What write queue length does an incoming req see
system.mem_ctrl.wrQLenPdf::24                    1182                       # What write queue length does an incoming req see
system.mem_ctrl.wrQLenPdf::25                    1183                       # What write queue length does an incoming req see
system.mem_ctrl.wrQLenPdf::26                    1180                       # What write queue length does an incoming req see
system.mem_ctrl.wrQLenPdf::27                    1182                       # What write queue length does an incoming req see
system.mem_ctrl.wrQLenPdf::28                    1180                       # What write queue length does an incoming req see
system.mem_ctrl.wrQLenPdf::29                    1180                       # What write queue length does an incoming req see
system.mem_ctrl.wrQLenPdf::30                    1180                       # What write queue length does an incoming req see
system.mem_ctrl.wrQLenPdf::31                    1180                       # What write queue length does an incoming req see
system.mem_ctrl.wrQLenPdf::32                    1180                       # What write queue length does an incoming req see
system.mem_ctrl.wrQLenPdf::33                       1                       # What write queue length does an incoming req see
system.mem_ctrl.wrQLenPdf::34                       1                       # What write queue length does an incoming req see
system.mem_ctrl.wrQLenPdf::35                       0                       # What write queue length does an incoming req see
system.mem_ctrl.wrQLenPdf::36                       0                       # What write queue length does an incoming req see
system.mem_ctrl.wrQLenPdf::37                       0                       # What write queue length does an incoming req see
system.mem_ctrl.wrQLenPdf::38                       0                       # What write queue length does an incoming req see
system.mem_ctrl.wrQLenPdf::39                       0                       # What write queue length does an incoming req see
system.mem_ctrl.wrQLenPdf::40                       0                       # What write queue length does an incoming req see
system.mem_ctrl.wrQLenPdf::41                       0                       # What write queue length does an incoming req see
system.mem_ctrl.wrQLenPdf::42                       0                       # What write queue length does an incoming req see
system.mem_ctrl.wrQLenPdf::43                       0                       # What write queue length does an incoming req see
system.mem_ctrl.wrQLenPdf::44                       0                       # What write queue length does an incoming req see
system.mem_ctrl.wrQLenPdf::45                       0                       # What write queue length does an incoming req see
system.mem_ctrl.wrQLenPdf::46                       0                       # What write queue length does an incoming req see
system.mem_ctrl.wrQLenPdf::47                       0                       # What write queue length does an incoming req see
system.mem_ctrl.wrQLenPdf::48                       0                       # What write queue length does an incoming req see
system.mem_ctrl.wrQLenPdf::49                       0                       # What write queue length does an incoming req see
system.mem_ctrl.wrQLenPdf::50                       0                       # What write queue length does an incoming req see
system.mem_ctrl.wrQLenPdf::51                       0                       # What write queue length does an incoming req see
system.mem_ctrl.wrQLenPdf::52                       0                       # What write queue length does an incoming req see
system.mem_ctrl.wrQLenPdf::53                       0                       # What write queue length does an incoming req see
system.mem_ctrl.wrQLenPdf::54                       0                       # What write queue length does an incoming req see
system.mem_ctrl.wrQLenPdf::55                       0                       # What write queue length does an incoming req see
system.mem_ctrl.wrQLenPdf::56                       0                       # What write queue length does an incoming req see
system.mem_ctrl.wrQLenPdf::57                       0                       # What write queue length does an incoming req see
system.mem_ctrl.wrQLenPdf::58                       0                       # What write queue length does an incoming req see
system.mem_ctrl.wrQLenPdf::59                       0                       # What write queue length does an incoming req see
system.mem_ctrl.wrQLenPdf::60                       0                       # What write queue length does an incoming req see
system.mem_ctrl.wrQLenPdf::61                       0                       # What write queue length does an incoming req see
system.mem_ctrl.wrQLenPdf::62                       0                       # What write queue length does an incoming req see
system.mem_ctrl.wrQLenPdf::63                       0                       # What write queue length does an incoming req see
system.mem_ctrl.writeBursts                   9656196                       # Number of DRAM write bursts, including those merged in the write queue
system.mem_ctrl.writePktSize::0                705394                       # Write request sizes (log2)
system.mem_ctrl.writePktSize::1                 32892                       # Write request sizes (log2)
system.mem_ctrl.writePktSize::2               1047011                       # Write request sizes (log2)
system.mem_ctrl.writePktSize::3               7870899                       # Write request sizes (log2)
system.mem_ctrl.writePktSize::4                     0                       # Write request sizes (log2)
system.mem_ctrl.writePktSize::5                     0                       # Write request sizes (log2)
system.mem_ctrl.writeReqs                     9656196                       # Number of write requests accepted
system.mem_ctrl.writeRowHitRate                 82.23                       # Row buffer hit rate for writes
system.mem_ctrl.writeRowHits                    15559                       # Number of row buffer hits during writes
system.mem_ctrl_0.actBackEnergy          140061508175.490784                       # Energy for active background per rank (pJ)
system.mem_ctrl_0.actEnergy              54531984249.858910                       # Energy for activate commands per rank (pJ)
system.mem_ctrl_0.actPowerDownEnergy     26290306719.024433                       # Energy for active power-down per rank (pJ)
system.mem_ctrl_0.averagePower              77.946088                       # Core power per rank (mW)
system.mem_ctrl_0.memoryStateTime::IDLE    4897142500                       # Time in different power states
system.mem_ctrl_0.memoryStateTime::REF   192499450000                       # Time in different power states
system.mem_ctrl_0.memoryStateTime::SREF        397248                       # Time in different power states
system.mem_ctrl_0.memoryStateTime::PRE_PDN   2669508912                       # Time in different power states
system.mem_ctrl_0.memoryStateTime::ACT   3317141878376                       # Time in different power states
system.mem_ctrl_0.memoryStateTime::ACT_PDN 2235571235214                       # Time in different power states
system.mem_ctrl_0.preBackEnergy          2226625497.851708                       # Energy for precharge background per rank (pJ)
system.mem_ctrl_0.preEnergy              19209781508.625206                       # Energy for precharge commands per rank (pJ)
system.mem_ctrl_0.prePowerDownEnergy     5445847.303627                       # Energy for precharge power-down per rank (pJ)
system.mem_ctrl_0.readEnergy             164924096517.061371                       # Energy for read commands per rank (pJ)
system.mem_ctrl_0.refreshEnergy          41127033648.093109                       # Energy for refresh commands per rank (pJ)
system.mem_ctrl_0.selfRefreshEnergy      638806.140000                       # Energy for self refresh per rank (pJ)
system.mem_ctrl_0.totalEnergy            448406665943.590454                       # Total energy per rank (pJ)
system.mem_ctrl_0.totalIdleTime          2238241118874                       # Total Idle time Per DRAM Rank
system.mem_ctrl_0.writeEnergy            29138992.512000                       # Energy for write commands per rank (pJ)
system.membus.pkt_count_system.cpu.icache_port::system.mem_ctrl.port    159762998                       # Packet count per connected master and slave (bytes)
system.membus.pkt_count_system.cpu.icache_port::total    159762998                       # Packet count per connected master and slave (bytes)
system.membus.pkt_count_system.cpu.dcache_port::system.mem_ctrl.port     57777186                       # Packet count per connected master and slave (bytes)
system.membus.pkt_count_system.cpu.dcache_port::total     57777186                       # Packet count per connected master and slave (bytes)
system.membus.pkt_count::total              217540184                       # Packet count per connected master and slave (bytes)
system.membus.pkt_size_system.cpu.icache_port::system.mem_ctrl.port    639051992                       # Cumulative packet size per connected master and slave (bytes)
system.membus.pkt_size_system.cpu.icache_port::total    639051992                       # Cumulative packet size per connected master and slave (bytes)
system.membus.pkt_size_system.cpu.dcache_port::system.mem_ctrl.port    195688159                       # Cumulative packet size per connected master and slave (bytes)
system.membus.pkt_size_system.cpu.dcache_port::total    195688159                       # Cumulative packet size per connected master and slave (bytes)
system.membus.pkt_size::total               834740151                       # Cumulative packet size per connected master and slave (bytes)
system.membus.pwrStateResidencyTicks::UNDEFINED 5752779612250                       # Cumulative time (in ticks) in various power states
system.membus.reqLayer2.occupancy         29606572000                       # Layer occupancy (ticks)
system.membus.reqLayer2.utilization               0.5                       # Layer utilization (%)
system.membus.respLayer0.occupancy        40011343816                       # Layer occupancy (ticks)
system.membus.respLayer0.utilization              0.7                       # Layer utilization (%)
system.membus.respLayer1.occupancy        12043708196                       # Layer occupancy (ticks)
system.membus.respLayer1.utilization              0.2                       # Layer utilization (%)
system.membus.snoopTraffic                          0                       # Total snoop traffic (bytes)
system.membus.snoop_fanout::samples         108770092                       # Request fanout histogram
system.membus.snoop_fanout::mean                    0                       # Request fanout histogram
system.membus.snoop_fanout::stdev                   0                       # Request fanout histogram
system.membus.snoop_fanout::underflows              0      0.00%      0.00% # Request fanout histogram
system.membus.snoop_fanout::0               108770092    100.00%    100.00% # Request fanout histogram
system.membus.snoop_fanout::1                       0      0.00%    100.00% # Request fanout histogram
system.membus.snoop_fanout::overflows               0      0.00%    100.00% # Request fanout histogram
system.membus.snoop_fanout::min_value               0                       # Request fanout histogram
system.membus.snoop_fanout::max_value               0                       # Request fanout histogram
system.membus.snoop_fanout::total           108770092                       # Request fanout histogram
system.membus.snoop_filter.hit_multi_requests            0                       # Number of requests hitting in the snoop filter with multiple (>1) holders of the requested data.
system.membus.snoop_filter.hit_multi_snoops            0                       # Number of snoops hitting in the snoop filter with multiple (>1) holders of the requested data.
system.membus.snoop_filter.hit_single_requests            0                       # Number of requests hitting in the snoop filter with a single holder of the requested data.
system.membus.snoop_filter.hit_single_snoops            0                       # Number of snoops hitting in the snoop filter with a single holder of the requested data.
system.membus.snoop_filter.tot_requests             0                       # Total number of requests made to the snoop filter.
system.membus.snoop_filter.tot_snoops               0                       # Total number of snoops made to the snoop filter.
system.membus.snoops                                0                       # Total snoops (count)
system.membus.trans_dist::ReadReq            99113896                       # Transaction distribution
system.membus.trans_dist::ReadResp           99113896                       # Transaction distribution
system.membus.trans_dist::WriteReq            9656196                       # Transaction distribution
system.membus.trans_dist::WriteResp           9656196                       # Transaction distribution

---------- End Simulation Statistics   ----------
